@<TRIPOS>MOLECULE
2520
 71 72 0 0 0
SMALL
GASTEIGER

@<TRIPOS>ATOM
      1 O           2.8660   -2.4821    0.0000 O.3     1  UNL1       -0.4914
      2 O           4.5981   -3.4821    0.0000 O.3     1  UNL1       -0.4915
      3 O          12.0981    1.3840    0.0000 O.3     1  UNL1       -0.4914
      4 O          13.0981    3.1160    0.0000 O.3     1  UNL1       -0.4915
      5 N           7.5981    2.2500    0.0000 N.3     1  UNL1       -0.3050
      6 N           2.5981    0.5179    0.0000 N.1     1  UNL1       -0.1956
      7 C           4.5981    0.5179    0.0000 C.3     1  UNL1        0.0846
      8 C           4.5981    1.5180    0.0000 C.3     1  UNL1       -0.0242
      9 C           5.5981    0.5179    0.0000 C.3     1  UNL1       -0.0290
     10 C           6.0981    1.3840    0.0000 C.3     1  UNL1       -0.0385
     11 C           4.5981   -0.4821    0.0000 C.ar    1  UNL1       -0.0236
     12 C           7.0981    1.3840    0.0000 C.3     1  UNL1       -0.0013
     13 C           5.4641    2.0180    0.0000 C.3     1  UNL1       -0.0609
     14 C           3.7321    2.0180    0.0000 C.3     1  UNL1       -0.0609
     15 C           3.5981    0.5179    0.0000 C.1     1  UNL1        0.0742
     16 C           3.7321   -0.9821    0.0000 C.ar    1  UNL1       -0.0116
     17 C           5.4641   -0.9821    0.0000 C.ar    1  UNL1       -0.0534
     18 C           8.5981    2.2500    0.0000 C.3     1  UNL1        0.0026
     19 C           3.7321   -1.9821    0.0000 C.ar    1  UNL1        0.1618
     20 C           7.0981    3.1160    0.0000 C.3     1  UNL1       -0.0128
     21 C           5.4641   -1.9821    0.0000 C.ar    1  UNL1       -0.0160
     22 C           9.0981    3.1160    0.0000 C.3     1  UNL1       -0.0148
     23 C           4.5981   -2.4821    0.0000 C.ar    1  UNL1        0.1615
     24 C          10.0981    3.1160    0.0000 C.ar    1  UNL1       -0.0425
     25 C          10.5981    2.2500    0.0000 C.ar    1  UNL1       -0.0131
     26 C          10.5981    3.9821    0.0000 C.ar    1  UNL1       -0.0548
     27 C          11.5981    2.2500    0.0000 C.ar    1  UNL1        0.1617
     28 C           2.0000   -1.9821    0.0000 C.3     1  UNL1        0.0790
     29 C          11.5981    3.9821    0.0000 C.ar    1  UNL1       -0.0160
     30 C          12.0981    3.1160    0.0000 C.ar    1  UNL1        0.1615
     31 C           5.4641   -3.9821    0.0000 C.3     1  UNL1        0.0790
     32 C          13.0981    1.3840    0.0000 C.3     1  UNL1        0.0790
     33 C          13.5981    3.9821    0.0000 C.3     1  UNL1        0.0790
     34 H           4.5981    2.1380    0.0000 H       1  UNL1        0.0314
     35 H           5.4904   -0.0926    0.0000 H       1  UNL1        0.0284
     36 H           6.1807    0.3059    0.0000 H       1  UNL1        0.0284
     37 H           6.2057    1.9946    0.0000 H       1  UNL1        0.0278
     38 H           5.5155    1.5960    0.0000 H       1  UNL1        0.0278
     39 H           6.9904    0.7734    0.0000 H       1  UNL1        0.0426
     40 H           7.6807    1.1719    0.0000 H       1  UNL1        0.0426
     41 H           5.7741    1.4810    0.0000 H       1  UNL1        0.0233
     42 H           6.0010    2.3280    0.0000 H       1  UNL1        0.0233
     43 H           5.1541    2.5549    0.0000 H       1  UNL1        0.0233
     44 H           4.0421    2.5549    0.0000 H       1  UNL1        0.0233
     45 H           3.1951    2.3280    0.0000 H       1  UNL1        0.0233
     46 H           3.4221    1.4810    0.0000 H       1  UNL1        0.0233
     47 H           3.1951   -0.6721    0.0000 H       1  UNL1        0.0658
     48 H           6.0010   -0.6721    0.0000 H       1  UNL1        0.0622
     49 H           8.4904    1.6394    0.0000 H       1  UNL1        0.0430
     50 H           9.1807    2.0380    0.0000 H       1  UNL1        0.0430
     51 H           7.6350    3.4260    0.0000 H       1  UNL1        0.0391
     52 H           6.7881    3.6530    0.0000 H       1  UNL1        0.0391
     53 H           6.5611    2.8060    0.0000 H       1  UNL1        0.0391
     54 H           9.2057    3.7266    0.0000 H       1  UNL1        0.0326
     55 H           8.5155    3.3281    0.0000 H       1  UNL1        0.0326
     56 H           6.0010   -2.2921    0.0000 H       1  UNL1        0.0655
     57 H          10.2881    1.7131    0.0000 H       1  UNL1        0.0658
     58 H          10.2881    4.5190    0.0000 H       1  UNL1        0.0621
     59 H           2.3100   -1.4451    0.0000 H       1  UNL1        0.0660
     60 H           1.4631   -1.6721    0.0000 H       1  UNL1        0.0660
     61 H           1.6900   -2.5190    0.0000 H       1  UNL1        0.0660
     62 H          11.9081    4.5190    0.0000 H       1  UNL1        0.0655
     63 H           5.1541   -4.5190    0.0000 H       1  UNL1        0.0660
     64 H           6.0010   -4.2921    0.0000 H       1  UNL1        0.0660
     65 H           5.7741   -3.4451    0.0000 H       1  UNL1        0.0660
     66 H          13.0981    0.7640    0.0000 H       1  UNL1        0.0660
     67 H          13.7181    1.3840    0.0000 H       1  UNL1        0.0660
     68 H          13.0981    2.0040    0.0000 H       1  UNL1        0.0660
     69 H          14.1350    3.6721    0.0000 H       1  UNL1        0.0660
     70 H          13.9081    4.5190    0.0000 H       1  UNL1        0.0660
     71 H          13.0611    4.2921    0.0000 H       1  UNL1        0.0660
@<TRIPOS>BOND
     1     1    19    1
     2     1    28    1
     3     2    23    1
     4     2    31    1
     5     3    27    1
     6     3    32    1
     7     4    30    1
     8     4    33    1
     9     5    12    1
    10     5    18    1
    11     5    20    1
    12     6    15    3
    13     7     8    1
    14     7     9    1
    15     7    11    1
    16     7    15    1
    17     8    13    1
    18     8    14    1
    19     8    34    1
    20     9    10    1
    21     9    35    1
    22     9    36    1
    23    10    12    1
    24    10    37    1
    25    10    38    1
    26    11    16   ar
    27    11    17   ar
    28    12    39    1
    29    12    40    1
    30    13    41    1
    31    13    42    1
    32    13    43    1
    33    14    44    1
    34    14    45    1
    35    14    46    1
    36    16    19   ar
    37    16    47    1
    38    17    21   ar
    39    17    48    1
    40    18    22    1
    41    18    49    1
    42    18    50    1
    43    19    23   ar
    44    20    51    1
    45    20    52    1
    46    20    53    1
    47    21    23   ar
    48    21    56    1
    49    22    24    1
    50    22    54    1
    51    22    55    1
    52    24    25   ar
    53    24    26   ar
    54    25    27   ar
    55    25    57    1
    56    26    29   ar
    57    26    58    1
    58    27    30   ar
    59    28    59    1
    60    28    60    1
    61    28    61    1
    62    29    30   ar
    63    29    62    1
    64    31    63    1
    65    31    64    1
    66    31    65    1
    67    32    66    1
    68    32    67    1
    69    32    68    1
    70    33    69    1
    71    33    70    1
    72    33    71    1
