REMARK  13 active torsions:
REMARK  status: ('A' for Active; 'I' for Inactive)
REMARK    1  A    between atoms: O_1  and  C_19 
REMARK    2  A    between atoms: O_2  and  C_23 
REMARK    3  A    between atoms: O_3  and  C_27 
REMARK    4  A    between atoms: O_4  and  C_30 
REMARK    5  A    between atoms: N_5  and  C_12 
REMARK    6  A    between atoms: N_5  and  C_18 
REMARK    7  A    between atoms: C_7  and  C_8 
REMARK    8  A    between atoms: C_7  and  C_9 
REMARK    9  A    between atoms: C_7  and  C_11 
REMARK   10  A    between atoms: C_9  and  C_10 
REMARK   11  A    between atoms: C_10  and  C_12 
REMARK   12  A    between atoms: C_18  and  C_22 
REMARK   13  A    between atoms: C_22  and  C_24 
ROOT
ATOM      1  N   UNL d   1       2.598   0.518   0.000  0.00  0.00    -0.196 NA
ATOM      2  C   UNL d   1       4.598   0.518   0.000  0.00  0.00     0.079 C 
ATOM      3  C   UNL d   1       3.598   0.518   0.000  0.00  0.00     0.074 C 
ENDROOT
BRANCH   2   4
ATOM      4  C   UNL d   1       4.598   1.518   0.000  0.00  0.00     0.004 C 
ATOM      5  C   UNL d   1       5.464   2.018   0.000  0.00  0.00     0.011 C 
ATOM      6  C   UNL d   1       3.732   2.018   0.000  0.00  0.00     0.011 C 
ENDBRANCH   2   4
BRANCH   2   7
ATOM      7  C   UNL d   1       5.598   0.518   0.000  0.00  0.00     0.031 C 
BRANCH   7   8
ATOM      8  C   UNL d   1       6.098   1.384   0.000  0.00  0.00     0.021 C 
BRANCH   8   9
ATOM      9  C   UNL d   1       7.098   1.384   0.000  0.00  0.00     0.116 C 
BRANCH   9  10
ATOM     10  N   UNL d   1       7.598   2.250   0.000  0.00  0.00    -0.416 N 
ATOM     11  C   UNL d   1       7.098   3.116   0.000  0.00  0.00     0.143 C 
BRANCH  10  12
ATOM     12  C   UNL d   1       8.598   2.250   0.000  0.00  0.00     0.121 C 
BRANCH  12  13
ATOM     13  C   UNL d   1       9.098   3.116   0.000  0.00  0.00     0.058 C 
BRANCH  13  14
ATOM     14  C   UNL d   1      10.098   3.116   0.000  0.00  0.00    -0.054 A 
ATOM     15  C   UNL d   1      10.598   2.250   0.000  0.00  0.00     0.046 A 
ATOM     16  C   UNL d   1      11.598   2.250   0.000  0.00  0.00     0.102 A 
ATOM     17  C   UNL d   1      12.098   3.116   0.000  0.00  0.00     0.101 A 
ATOM     18  C   UNL d   1      11.598   3.982   0.000  0.00  0.00     0.040 A 
ATOM     19  C   UNL d   1      10.598   3.982   0.000  0.00  0.00     0.010 A 
BRANCH  16  20
ATOM     20  O   UNL d   1      12.098   1.384   0.000  0.00  0.00    -0.353 OA
ATOM     21  C   UNL d   1      13.098   1.384   0.000  0.00  0.00     0.210 C 
ENDBRANCH  16  20
BRANCH  17  22
ATOM     22  O   UNL d   1      13.098   3.116   0.000  0.00  0.00    -0.353 OA
ATOM     23  C   UNL d   1      13.598   3.982   0.000  0.00  0.00     0.210 C 
ENDBRANCH  17  22
ENDBRANCH  13  14
ENDBRANCH  12  13
ENDBRANCH  10  12
ENDBRANCH   9  10
ENDBRANCH   8   9
ENDBRANCH   7   8
ENDBRANCH   2   7
BRANCH   2  24
ATOM     24  C   UNL d   1       4.598  -0.482   0.000  0.00  0.00    -0.032 A 
ATOM     25  C   UNL d   1       3.732  -0.982   0.000  0.00  0.00     0.048 A 
ATOM     26  C   UNL d   1       3.732  -1.982   0.000  0.00  0.00     0.102 A 
ATOM     27  C   UNL d   1       4.598  -2.482   0.000  0.00  0.00     0.101 A 
ATOM     28  C   UNL d   1       5.464  -1.982   0.000  0.00  0.00     0.040 A 
ATOM     29  C   UNL d   1       5.464  -0.982   0.000  0.00  0.00     0.012 A 
BRANCH  26  30
ATOM     30  O   UNL d   1       2.866  -2.482   0.000  0.00  0.00    -0.353 OA
ATOM     31  C   UNL d   1       2.000  -1.982   0.000  0.00  0.00     0.210 C 
ENDBRANCH  26  30
BRANCH  27  32
ATOM     32  O   UNL d   1       4.598  -3.482   0.000  0.00  0.00    -0.353 OA
ATOM     33  C   UNL d   1       5.464  -3.982   0.000  0.00  0.00     0.210 C 
ENDBRANCH  27  32
ENDBRANCH   2  24
TORSDOF 13
