MODEL 1
REMARK VINA RESULT:    -5.676      0.000      0.000
REMARK INTER + INTRA:         -14.432
REMARK INTER:                 -10.488
REMARK INTRA:                  -3.944
REMARK UNBOUND:                -2.949
REMARK  Name = 2520
REMARK  21 active torsions:
REMARK  status: ('A' for Active; 'I' for Inactive)
REMARK    1  A    between atoms: O_1  and  C_19
REMARK    2  A    between atoms: O_1  and  C_28
REMARK    3  A    between atoms: O_2  and  C_23
REMARK    4  A    between atoms: O_2  and  C_31
REMARK    5  A    between atoms: O_3  and  C_27
REMARK    6  A    between atoms: O_3  and  C_32
REMARK    7  A    between atoms: O_4  and  C_30
REMARK    8  A    between atoms: O_4  and  C_33
REMARK    9  A    between atoms: N_5  and  C_12
REMARK   10  A    between atoms: N_5  and  C_18
REMARK   11  A    between atoms: N_5  and  C_20
REMARK   12  A    between atoms: C_7  and  C_8
REMARK   13  A    between atoms: C_7  and  C_9
REMARK   14  A    between atoms: C_7  and  C_11
REMARK   15  A    between atoms: C_7  and  C_15
REMARK   16  A    between atoms: C_8  and  C_13
REMARK   17  A    between atoms: C_8  and  C_14
REMARK   18  A    between atoms: C_9  and  C_10
REMARK   19  A    between atoms: C_10  and  C_12
REMARK   20  A    between atoms: C_18  and  C_22
REMARK   21  A    between atoms: C_22  and  C_24
REMARK                            x       y       z     vdW  Elec       q    Type
REMARK                         _______ _______ _______ _____ _____    ______ ____
ROOT
ATOM      1  C   UNL A   1     -24.434  -1.382  21.819  0.00  0.00    -0.038 C 
ATOM      2  H   UNL A   1     -25.381  -1.553  22.341  0.00  0.00    +0.028 HD
ATOM      3  H   UNL A   1     -24.464  -0.373  21.400  0.00  0.00    +0.028 HD
ENDROOT
BRANCH   1   4
ATOM      4  C   UNL A   1     -24.357  -2.387  20.641  0.00  0.00    -0.001 C 
ATOM      5  H   UNL A   1     -25.272  -2.345  20.036  0.00  0.00    +0.043 HD
ATOM      6  H   UNL A   1     -23.541  -2.047  19.990  0.00  0.00    +0.043 HD
BRANCH   4   7
ATOM      7  N   UNL A   1     -24.082  -3.789  21.076  0.00  0.00    -0.305 NA
BRANCH   7   8
ATOM      8  C   UNL A   1     -23.075  -4.398  20.199  0.00  0.00    -0.013 C 
ATOM      9  H   UNL A   1     -23.505  -4.778  19.265  0.00  0.00    +0.039 HD
ATOM     10  H   UNL A   1     -22.289  -3.676  19.946  0.00  0.00    +0.039 HD
ATOM     11  H   UNL A   1     -22.554  -5.217  20.707  0.00  0.00    +0.039 HD
ENDBRANCH   7   8
BRANCH   7  12
ATOM     12  C   UNL A   1     -25.328  -4.605  21.154  0.00  0.00    +0.003 C 
ATOM     13  H   UNL A   1     -26.171  -3.918  21.036  0.00  0.00    +0.043 HD
ATOM     14  H   UNL A   1     -25.350  -5.305  20.310  0.00  0.00    +0.043 HD
BRANCH  12  15
ATOM     15  C   UNL A   1     -25.581  -5.426  22.457  0.00  0.00    -0.015 C 
ATOM     16  H   UNL A   1     -25.903  -6.435  22.166  0.00  0.00    +0.033 HD
ATOM     17  H   UNL A   1     -24.641  -5.529  23.014  0.00  0.00    +0.033 HD
BRANCH  15  18
ATOM     18  C   UNL A   1     -26.661  -4.925  23.414  0.00  0.00    -0.043 A 
ATOM     19  C   UNL A   1     -27.320  -5.743  24.348  0.00  0.00    -0.013 A 
ATOM     20  C   UNL A   1     -26.979  -3.560  23.411  0.00  0.00    -0.055 A 
ATOM     21  C   UNL A   1     -28.186  -5.212  25.334  0.00  0.00    +0.162 A 
ATOM     22  C   UNL A   1     -27.865  -3.029  24.355  0.00  0.00    -0.016 A 
ATOM     23  C   UNL A   1     -28.452  -3.835  25.339  0.00  0.00    +0.162 A 
ATOM     24  H   UNL A   1     -27.150  -6.812  24.305  0.00  0.00    +0.066 HD
ATOM     25  H   UNL A   1     -26.527  -2.888  22.684  0.00  0.00    +0.062 HD
ATOM     26  H   UNL A   1     -28.087  -1.963  24.336  0.00  0.00    +0.066 HD
BRANCH  23  27
ATOM     27  O   UNL A   1     -29.246  -3.119  26.201  0.00  0.00    -0.491 OA
BRANCH  27  28
ATOM     28  C   UNL A   1     -29.346  -1.710  26.034  0.00  0.00    +0.079 C 
ATOM     29  H   UNL A   1     -28.497  -1.317  25.469  0.00  0.00    +0.066 HD
ATOM     30  H   UNL A   1     -30.308  -1.421  25.595  0.00  0.00    +0.066 HD
ATOM     31  H   UNL A   1     -29.298  -1.254  27.028  0.00  0.00    +0.066 HD
ENDBRANCH  27  28
ENDBRANCH  23  27
BRANCH  21  32
ATOM     32  O   UNL A   1     -28.779  -5.979  26.296  0.00  0.00    -0.491 OA
BRANCH  32  33
ATOM     33  C   UNL A   1     -27.983  -6.579  27.307  0.00  0.00    +0.079 C 
ATOM     34  H   UNL A   1     -28.283  -7.622  27.452  0.00  0.00    +0.066 HD
ATOM     35  H   UNL A   1     -26.909  -6.496  27.108  0.00  0.00    +0.066 HD
ATOM     36  H   UNL A   1     -28.173  -6.038  28.238  0.00  0.00    +0.066 HD
ENDBRANCH  32  33
ENDBRANCH  21  32
ENDBRANCH  15  18
ENDBRANCH  12  15
ENDBRANCH   7  12
ENDBRANCH   4   7
ENDBRANCH   1   4
BRANCH   1  37
ATOM     37  C   UNL A   1     -23.254  -1.483  22.844  0.00  0.00    -0.029 C 
ATOM     38  H   UNL A   1     -22.432  -0.857  22.468  0.00  0.00    +0.028 HD
ATOM     39  H   UNL A   1     -22.847  -2.502  22.821  0.00  0.00    +0.028 HD
BRANCH  37  40
ATOM     40  C   UNL A   1     -23.595  -1.068  24.374  0.00  0.00    +0.085 C 
BRANCH  40  41
ATOM     41  C   UNL A   1     -23.762  -2.439  25.093  0.00  0.00    -0.024 A 
ATOM     42  C   UNL A   1     -24.648  -2.539  26.187  0.00  0.00    -0.012 A 
ATOM     43  C   UNL A   1     -23.209  -3.640  24.623  0.00  0.00    -0.053 A 
ATOM     44  C   UNL A   1     -25.027  -3.768  26.754  0.00  0.00    +0.162 A 
ATOM     45  C   UNL A   1     -23.513  -4.862  25.232  0.00  0.00    -0.016 A 
ATOM     46  C   UNL A   1     -24.413  -4.940  26.299  0.00  0.00    +0.162 A 
ATOM     47  H   UNL A   1     -25.093  -1.629  26.586  0.00  0.00    +0.066 HD
ATOM     48  H   UNL A   1     -22.557  -3.675  23.755  0.00  0.00    +0.062 HD
ATOM     49  H   UNL A   1     -23.062  -5.776  24.848  0.00  0.00    +0.066 HD
BRANCH  44  50
ATOM     50  O   UNL A   1     -25.996  -3.848  27.719  0.00  0.00    -0.491 OA
BRANCH  50  51
ATOM     51  C   UNL A   1     -26.424  -2.594  28.246  0.00  0.00    +0.079 C 
ATOM     52  H   UNL A   1     -27.517  -2.570  28.218  0.00  0.00    +0.066 HD
ATOM     53  H   UNL A   1     -26.118  -2.486  29.293  0.00  0.00    +0.066 HD
ATOM     54  H   UNL A   1     -26.057  -1.751  27.646  0.00  0.00    +0.066 HD
ENDBRANCH  50  51
ENDBRANCH  44  50
BRANCH  46  55
ATOM     55  O   UNL A   1     -24.658  -6.222  26.714  0.00  0.00    -0.491 OA
BRANCH  55  56
ATOM     56  C   UNL A   1     -23.880  -6.692  27.808  0.00  0.00    +0.079 C 
ATOM     57  H   UNL A   1     -22.958  -7.185  27.480  0.00  0.00    +0.066 HD
ATOM     58  H   UNL A   1     -23.676  -5.883  28.514  0.00  0.00    +0.066 HD
ATOM     59  H   UNL A   1     -24.482  -7.437  28.340  0.00  0.00    +0.066 HD
ENDBRANCH  55  56
ENDBRANCH  46  55
ENDBRANCH  40  41
BRANCH  40  60
ATOM     60  C   UNL A   1     -22.429  -0.163  24.936  0.00  0.00    -0.024 C 
ATOM     61  H   UNL A   1     -22.662   0.881  24.687  0.00  0.00    +0.031 HD
BRANCH  60  62
ATOM     62  C   UNL A   1     -21.039  -0.437  24.342  0.00  0.00    -0.061 C 
ATOM     63  H   UNL A   1     -20.570  -1.334  24.763  0.00  0.00    +0.023 HD
ATOM     64  H   UNL A   1     -21.123  -0.615  23.264  0.00  0.00    +0.023 HD
ATOM     65  H   UNL A   1     -20.358   0.402  24.493  0.00  0.00    +0.023 HD
ENDBRANCH  60  62
BRANCH  60  66
ATOM     66  C   UNL A   1     -22.293  -0.190  26.469  0.00  0.00    -0.061 C 
ATOM     67  H   UNL A   1     -22.921  -0.967  26.916  0.00  0.00    +0.023 HD
ATOM     68  H   UNL A   1     -21.254  -0.395  26.756  0.00  0.00    +0.023 HD
ATOM     69  H   UNL A   1     -22.550   0.770  26.923  0.00  0.00    +0.023 HD
ENDBRANCH  60  66
ENDBRANCH  40  60
BRANCH  40  71
ATOM     70  N   UNL A   1     -26.037   0.264  24.383  0.00  0.00    -0.196 NA
ATOM     71  C   UNL A   1     -24.929  -0.340  24.379  0.00  0.00    +0.074 C 
ENDBRANCH  40  71
ENDBRANCH  37  40
ENDBRANCH   1  37
TORSDOF 21
ENDMDL
MODEL 2
REMARK VINA RESULT:    -5.489      1.011      2.142
REMARK INTER + INTRA:         -14.054
REMARK INTER:                 -10.049
REMARK INTRA:                  -4.004
REMARK UNBOUND:                -2.949
REMARK  Name = 2520
REMARK  21 active torsions:
REMARK  status: ('A' for Active; 'I' for Inactive)
REMARK    1  A    between atoms: O_1  and  C_19
REMARK    2  A    between atoms: O_1  and  C_28
REMARK    3  A    between atoms: O_2  and  C_23
REMARK    4  A    between atoms: O_2  and  C_31
REMARK    5  A    between atoms: O_3  and  C_27
REMARK    6  A    between atoms: O_3  and  C_32
REMARK    7  A    between atoms: O_4  and  C_30
REMARK    8  A    between atoms: O_4  and  C_33
REMARK    9  A    between atoms: N_5  and  C_12
REMARK   10  A    between atoms: N_5  and  C_18
REMARK   11  A    between atoms: N_5  and  C_20
REMARK   12  A    between atoms: C_7  and  C_8
REMARK   13  A    between atoms: C_7  and  C_9
REMARK   14  A    between atoms: C_7  and  C_11
REMARK   15  A    between atoms: C_7  and  C_15
REMARK   16  A    between atoms: C_8  and  C_13
REMARK   17  A    between atoms: C_8  and  C_14
REMARK   18  A    between atoms: C_9  and  C_10
REMARK   19  A    between atoms: C_10  and  C_12
REMARK   20  A    between atoms: C_18  and  C_22
REMARK   21  A    between atoms: C_22  and  C_24
REMARK                            x       y       z     vdW  Elec       q    Type
REMARK                         _______ _______ _______ _____ _____    ______ ____
ROOT
ATOM      1  C   UNL A   1     -23.609  -1.893  21.981  0.00  0.00    -0.038 C 
ATOM      2  H   UNL A   1     -24.274  -1.024  21.962  0.00  0.00    +0.028 HD
ATOM      3  H   UNL A   1     -22.631  -1.571  21.614  0.00  0.00    +0.028 HD
ENDROOT
BRANCH   1   4
ATOM      4  C   UNL A   1     -24.171  -2.940  20.985  0.00  0.00    -0.001 C 
ATOM      5  H   UNL A   1     -25.267  -2.984  21.046  0.00  0.00    +0.043 HD
ATOM      6  H   UNL A   1     -23.933  -2.576  19.977  0.00  0.00    +0.043 HD
BRANCH   4   7
ATOM      7  N   UNL A   1     -23.584  -4.302  21.164  0.00  0.00    -0.305 NA
BRANCH   7   8
ATOM      8  C   UNL A   1     -22.747  -4.642  20.008  0.00  0.00    -0.013 C 
ATOM      9  H   UNL A   1     -21.717  -4.886  20.292  0.00  0.00    +0.039 HD
ATOM     10  H   UNL A   1     -23.164  -5.497  19.462  0.00  0.00    +0.039 HD
ATOM     11  H   UNL A   1     -22.728  -3.823  19.281  0.00  0.00    +0.039 HD
ENDBRANCH   7   8
BRANCH   7  12
ATOM     12  C   UNL A   1     -24.629  -5.333  21.425  0.00  0.00    +0.003 C 
ATOM     13  H   UNL A   1     -25.568  -4.952  21.011  0.00  0.00    +0.043 HD
ATOM     14  H   UNL A   1     -24.373  -6.248  20.879  0.00  0.00    +0.043 HD
BRANCH  12  15
ATOM     15  C   UNL A   1     -24.908  -5.728  22.909  0.00  0.00    -0.015 C 
ATOM     16  H   UNL A   1     -24.915  -6.825  22.973  0.00  0.00    +0.033 HD
ATOM     17  H   UNL A   1     -24.090  -5.367  23.545  0.00  0.00    +0.033 HD
BRANCH  15  18
ATOM     18  C   UNL A   1     -26.234  -5.287  23.526  0.00  0.00    -0.043 A 
ATOM     19  C   UNL A   1     -26.903  -5.999  24.537  0.00  0.00    -0.013 A 
ATOM     20  C   UNL A   1     -26.797  -4.073  23.109  0.00  0.00    -0.055 A 
ATOM     21  C   UNL A   1     -28.034  -5.472  25.204  0.00  0.00    +0.162 A 
ATOM     22  C   UNL A   1     -27.939  -3.561  23.734  0.00  0.00    -0.016 A 
ATOM     23  C   UNL A   1     -28.550  -4.233  24.800  0.00  0.00    +0.162 A 
ATOM     24  H   UNL A   1     -26.529  -6.979  24.808  0.00  0.00    +0.066 HD
ATOM     25  H   UNL A   1     -26.341  -3.500  22.303  0.00  0.00    +0.062 HD
ATOM     26  H   UNL A   1     -28.350  -2.611  23.396  0.00  0.00    +0.066 HD
BRANCH  23  27
ATOM     27  O   UNL A   1     -29.623  -3.543  25.311  0.00  0.00    -0.491 OA
BRANCH  27  28
ATOM     28  C   UNL A   1     -29.824  -2.192  24.913  0.00  0.00    +0.079 C 
ATOM     29  H   UNL A   1     -30.812  -1.834  25.216  0.00  0.00    +0.066 HD
ATOM     30  H   UNL A   1     -29.018  -1.541  25.269  0.00  0.00    +0.066 HD
ATOM     31  H   UNL A   1     -29.803  -2.162  23.819  0.00  0.00    +0.066 HD
ENDBRANCH  27  28
ENDBRANCH  23  27
BRANCH  21  32
ATOM     32  O   UNL A   1     -28.655  -6.114  26.239  0.00  0.00    -0.491 OA
BRANCH  32  33
ATOM     33  C   UNL A   1     -27.876  -6.785  27.218  0.00  0.00    +0.079 C 
ATOM     34  H   UNL A   1     -27.916  -7.866  27.056  0.00  0.00    +0.066 HD
ATOM     35  H   UNL A   1     -26.842  -6.425  27.259  0.00  0.00    +0.066 HD
ATOM     36  H   UNL A   1     -28.321  -6.571  28.194  0.00  0.00    +0.066 HD
ENDBRANCH  32  33
ENDBRANCH  21  32
ENDBRANCH  15  18
ENDBRANCH  12  15
ENDBRANCH   7  12
ENDBRANCH   4   7
ENDBRANCH   1   4
BRANCH   1  37
ATOM     37  C   UNL A   1     -23.468  -2.402  23.455  0.00  0.00    -0.029 C 
ATOM     38  H   UNL A   1     -22.471  -2.855  23.557  0.00  0.00    +0.028 HD
ATOM     39  H   UNL A   1     -24.160  -3.239  23.612  0.00  0.00    +0.028 HD
BRANCH  37  40
ATOM     40  C   UNL A   1     -23.681  -1.294  24.621  0.00  0.00    +0.085 C 
BRANCH  40  41
ATOM     41  C   UNL A   1     -24.754  -1.941  25.543  0.00  0.00    -0.024 A 
ATOM     42  C   UNL A   1     -24.536  -3.242  26.047  0.00  0.00    -0.012 A 
ATOM     43  C   UNL A   1     -25.868  -1.253  26.049  0.00  0.00    -0.053 A 
ATOM     44  C   UNL A   1     -25.334  -3.816  27.051  0.00  0.00    +0.162 A 
ATOM     45  C   UNL A   1     -26.718  -1.845  26.988  0.00  0.00    -0.016 A 
ATOM     46  C   UNL A   1     -26.467  -3.125  27.491  0.00  0.00    +0.162 A 
ATOM     47  H   UNL A   1     -23.687  -3.812  25.674  0.00  0.00    +0.066 HD
ATOM     48  H   UNL A   1     -26.092  -0.229  25.764  0.00  0.00    +0.062 HD
ATOM     49  H   UNL A   1     -27.578  -1.287  27.357  0.00  0.00    +0.066 HD
BRANCH  44  50
ATOM     50  O   UNL A   1     -25.015  -5.019  27.624  0.00  0.00    -0.491 OA
BRANCH  50  51
ATOM     51  C   UNL A   1     -24.169  -5.855  26.836  0.00  0.00    +0.079 C 
ATOM     52  H   UNL A   1     -23.286  -5.277  26.558  0.00  0.00    +0.066 HD
ATOM     53  H   UNL A   1     -23.829  -6.721  27.415  0.00  0.00    +0.066 HD
ATOM     54  H   UNL A   1     -24.662  -6.178  25.909  0.00  0.00    +0.066 HD
ENDBRANCH  50  51
ENDBRANCH  44  50
BRANCH  46  55
ATOM     55  O   UNL A   1     -27.352  -3.512  28.463  0.00  0.00    -0.491 OA
BRANCH  55  56
ATOM     56  C   UNL A   1     -28.571  -2.784  28.537  0.00  0.00    +0.079 C 
ATOM     57  H   UNL A   1     -28.873  -2.383  27.563  0.00  0.00    +0.066 HD
ATOM     58  H   UNL A   1     -29.360  -3.394  28.984  0.00  0.00    +0.066 HD
ATOM     59  H   UNL A   1     -28.405  -1.935  29.207  0.00  0.00    +0.066 HD
ENDBRANCH  55  56
ENDBRANCH  46  55
ENDBRANCH  40  41
BRANCH  40  60
ATOM     60  C   UNL A   1     -22.293  -1.006  25.318  0.00  0.00    -0.024 C 
ATOM     61  H   UNL A   1     -21.858  -1.969  25.615  0.00  0.00    +0.031 HD
BRANCH  60  62
ATOM     62  C   UNL A   1     -22.364  -0.163  26.600  0.00  0.00    -0.061 C 
ATOM     63  H   UNL A   1     -23.333  -0.245  27.107  0.00  0.00    +0.023 HD
ATOM     64  H   UNL A   1     -21.614  -0.512  27.318  0.00  0.00    +0.023 HD
ATOM     65  H   UNL A   1     -22.176   0.895  26.403  0.00  0.00    +0.023 HD
ENDBRANCH  60  62
BRANCH  60  66
ATOM     66  C   UNL A   1     -21.246  -0.359  24.394  0.00  0.00    -0.061 C 
ATOM     67  H   UNL A   1     -20.462  -1.069  24.114  0.00  0.00    +0.023 HD
ATOM     68  H   UNL A   1     -21.720  -0.005  23.470  0.00  0.00    +0.023 HD
ATOM     69  H   UNL A   1     -20.778   0.517  24.850  0.00  0.00    +0.023 HD
ENDBRANCH  60  66
ENDBRANCH  40  60
BRANCH  40  71
ATOM     70  N   UNL A   1     -24.746   0.993  23.451  0.00  0.00    -0.196 NA
ATOM     71  C   UNL A   1     -24.263  -0.045  23.982  0.00  0.00    +0.074 C 
ENDBRANCH  40  71
ENDBRANCH  37  40
ENDBRANCH   1  37
TORSDOF 21
ENDMDL
MODEL 3
REMARK VINA RESULT:    -5.417      4.260      6.830
REMARK INTER + INTRA:         -13.909
REMARK INTER:                 -12.505
REMARK INTRA:                  -1.404
REMARK UNBOUND:                -2.949
REMARK  Name = 2520
REMARK  21 active torsions:
REMARK  status: ('A' for Active; 'I' for Inactive)
REMARK    1  A    between atoms: O_1  and  C_19
REMARK    2  A    between atoms: O_1  and  C_28
REMARK    3  A    between atoms: O_2  and  C_23
REMARK    4  A    between atoms: O_2  and  C_31
REMARK    5  A    between atoms: O_3  and  C_27
REMARK    6  A    between atoms: O_3  and  C_32
REMARK    7  A    between atoms: O_4  and  C_30
REMARK    8  A    between atoms: O_4  and  C_33
REMARK    9  A    between atoms: N_5  and  C_12
REMARK   10  A    between atoms: N_5  and  C_18
REMARK   11  A    between atoms: N_5  and  C_20
REMARK   12  A    between atoms: C_7  and  C_8
REMARK   13  A    between atoms: C_7  and  C_9
REMARK   14  A    between atoms: C_7  and  C_11
REMARK   15  A    between atoms: C_7  and  C_15
REMARK   16  A    between atoms: C_8  and  C_13
REMARK   17  A    between atoms: C_8  and  C_14
REMARK   18  A    between atoms: C_9  and  C_10
REMARK   19  A    between atoms: C_10  and  C_12
REMARK   20  A    between atoms: C_18  and  C_22
REMARK   21  A    between atoms: C_22  and  C_24
REMARK                            x       y       z     vdW  Elec       q    Type
REMARK                         _______ _______ _______ _____ _____    ______ ____
ROOT
ATOM      1  C   UNL A   1     -24.647  -2.402  21.852  0.00  0.00    -0.038 C 
ATOM      2  H   UNL A   1     -24.975  -3.393  22.180  0.00  0.00    +0.028 HD
ATOM      3  H   UNL A   1     -25.490  -1.717  21.969  0.00  0.00    +0.028 HD
ENDROOT
BRANCH   1   4
ATOM      4  C   UNL A   1     -24.312  -2.492  20.341  0.00  0.00    -0.001 C 
ATOM      5  H   UNL A   1     -25.094  -2.007  19.741  0.00  0.00    +0.043 HD
ATOM      6  H   UNL A   1     -23.396  -1.907  20.185  0.00  0.00    +0.043 HD
BRANCH   4   7
ATOM      7  N   UNL A   1     -24.084  -3.890  19.867  0.00  0.00    -0.305 NA
BRANCH   7   8
ATOM      8  C   UNL A   1     -24.671  -4.843  20.816  0.00  0.00    -0.013 C 
ATOM      9  H   UNL A   1     -25.526  -4.424  21.358  0.00  0.00    +0.039 HD
ATOM     10  H   UNL A   1     -25.003  -5.752  20.302  0.00  0.00    +0.039 HD
ATOM     11  H   UNL A   1     -23.926  -5.185  21.543  0.00  0.00    +0.039 HD
ENDBRANCH   7   8
BRANCH   7  12
ATOM     12  C   UNL A   1     -22.640  -4.167  19.614  0.00  0.00    +0.003 C 
ATOM     13  H   UNL A   1     -22.066  -3.547  20.311  0.00  0.00    +0.043 HD
ATOM     14  H   UNL A   1     -22.430  -5.216  19.852  0.00  0.00    +0.043 HD
BRANCH  12  15
ATOM     15  C   UNL A   1     -22.085  -3.885  18.183  0.00  0.00    -0.015 C 
ATOM     16  H   UNL A   1     -21.382  -4.690  17.926  0.00  0.00    +0.033 HD
ATOM     17  H   UNL A   1     -22.906  -3.921  17.457  0.00  0.00    +0.033 HD
BRANCH  15  18
ATOM     18  C   UNL A   1     -21.301  -2.591  17.966  0.00  0.00    -0.043 A 
ATOM     19  C   UNL A   1     -20.236  -2.464  17.058  0.00  0.00    -0.013 A 
ATOM     20  C   UNL A   1     -21.697  -1.442  18.664  0.00  0.00    -0.055 A 
ATOM     21  C   UNL A   1     -19.650  -1.211  16.757  0.00  0.00    +0.162 A 
ATOM     22  C   UNL A   1     -21.098  -0.205  18.405  0.00  0.00    -0.016 A 
ATOM     23  C   UNL A   1     -20.096  -0.068  17.435  0.00  0.00    +0.162 A 
ATOM     24  H   UNL A   1     -19.861  -3.359  16.576  0.00  0.00    +0.066 HD
ATOM     25  H   UNL A   1     -22.491  -1.492  19.407  0.00  0.00    +0.062 HD
ATOM     26  H   UNL A   1     -21.432   0.674  18.955  0.00  0.00    +0.066 HD
BRANCH  23  27
ATOM     27  O   UNL A   1     -19.676   1.232  17.293  0.00  0.00    -0.491 OA
BRANCH  27  28
ATOM     28  C   UNL A   1     -20.041   2.185  18.284  0.00  0.00    +0.079 C 
ATOM     29  H   UNL A   1     -19.628   3.171  18.055  0.00  0.00    +0.066 HD
ATOM     30  H   UNL A   1     -21.125   2.213  18.440  0.00  0.00    +0.066 HD
ATOM     31  H   UNL A   1     -19.588   1.870  19.230  0.00  0.00    +0.066 HD
ENDBRANCH  27  28
ENDBRANCH  23  27
BRANCH  21  32
ATOM     32  O   UNL A   1     -18.664  -1.055  15.825  0.00  0.00    -0.491 OA
BRANCH  32  33
ATOM     33  C   UNL A   1     -18.278  -2.157  15.018  0.00  0.00    +0.079 C 
ATOM     34  H   UNL A   1     -17.945  -1.807  14.037  0.00  0.00    +0.066 HD
ATOM     35  H   UNL A   1     -17.520  -2.789  15.495  0.00  0.00    +0.066 HD
ATOM     36  H   UNL A   1     -19.162  -2.783  14.873  0.00  0.00    +0.066 HD
ENDBRANCH  32  33
ENDBRANCH  21  32
ENDBRANCH  15  18
ENDBRANCH  12  15
ENDBRANCH   7  12
ENDBRANCH   4   7
ENDBRANCH   1   4
BRANCH   1  37
ATOM     37  C   UNL A   1     -23.461  -1.925  22.757  0.00  0.00    -0.029 C 
ATOM     38  H   UNL A   1     -22.918  -1.142  22.209  0.00  0.00    +0.028 HD
ATOM     39  H   UNL A   1     -22.733  -2.740  22.852  0.00  0.00    +0.028 HD
BRANCH  37  40
ATOM     40  C   UNL A   1     -23.859  -1.378  24.231  0.00  0.00    +0.085 C 
BRANCH  40  41
ATOM     41  C   UNL A   1     -24.079  -2.681  25.054  0.00  0.00    -0.024 A 
ATOM     42  C   UNL A   1     -25.108  -2.721  26.019  0.00  0.00    -0.012 A 
ATOM     43  C   UNL A   1     -23.422  -3.893  24.790  0.00  0.00    -0.053 A 
ATOM     44  C   UNL A   1     -25.520  -3.907  26.648  0.00  0.00    +0.162 A 
ATOM     45  C   UNL A   1     -23.766  -5.065  25.470  0.00  0.00    -0.016 A 
ATOM     46  C   UNL A   1     -24.806  -5.085  26.404  0.00  0.00    +0.162 A 
ATOM     47  H   UNL A   1     -25.637  -1.799  26.258  0.00  0.00    +0.066 HD
ATOM     48  H   UNL A   1     -22.652  -3.978  24.028  0.00  0.00    +0.062 HD
ATOM     49  H   UNL A   1     -23.233  -5.988  25.247  0.00  0.00    +0.066 HD
BRANCH  44  50
ATOM     50  O   UNL A   1     -26.614  -3.943  27.473  0.00  0.00    -0.491 OA
BRANCH  50  51
ATOM     51  C   UNL A   1     -27.775  -3.291  26.961  0.00  0.00    +0.079 C 
ATOM     52  H   UNL A   1     -27.675  -2.220  27.153  0.00  0.00    +0.066 HD
ATOM     53  H   UNL A   1     -27.851  -3.426  25.876  0.00  0.00    +0.066 HD
ATOM     54  H   UNL A   1     -28.691  -3.636  27.460  0.00  0.00    +0.066 HD
ENDBRANCH  50  51
ENDBRANCH  44  50
BRANCH  46  55
ATOM     55  O   UNL A   1     -25.063  -6.333  26.909  0.00  0.00    -0.491 OA
BRANCH  55  56
ATOM     56  C   UNL A   1     -24.192  -6.792  27.935  0.00  0.00    +0.079 C 
ATOM     57  H   UNL A   1     -23.952  -7.855  27.830  0.00  0.00    +0.066 HD
ATOM     58  H   UNL A   1     -23.289  -6.177  27.981  0.00  0.00    +0.066 HD
ATOM     59  H   UNL A   1     -24.715  -6.664  28.888  0.00  0.00    +0.066 HD
ENDBRANCH  55  56
ENDBRANCH  46  55
ENDBRANCH  40  41
BRANCH  40  60
ATOM     60  C   UNL A   1     -22.703  -0.444  24.764  0.00  0.00    -0.024 C 
ATOM     61  H   UNL A   1     -23.048   0.596  24.690  0.00  0.00    +0.031 HD
BRANCH  60  62
ATOM     62  C   UNL A   1     -21.387  -0.510  23.975  0.00  0.00    -0.061 C 
ATOM     63  H   UNL A   1     -21.056  -1.538  23.792  0.00  0.00    +0.023 HD
ATOM     64  H   UNL A   1     -21.521  -0.052  22.988  0.00  0.00    +0.023 HD
ATOM     65  H   UNL A   1     -20.578   0.019  24.484  0.00  0.00    +0.023 HD
ENDBRANCH  60  62
BRANCH  60  66
ATOM     66  C   UNL A   1     -22.363  -0.649  26.252  0.00  0.00    -0.061 C 
ATOM     67  H   UNL A   1     -21.928   0.252  26.694  0.00  0.00    +0.023 HD
ATOM     68  H   UNL A   1     -23.270  -0.895  26.819  0.00  0.00    +0.023 HD
ATOM     69  H   UNL A   1     -21.673  -1.482  26.406  0.00  0.00    +0.023 HD
ENDBRANCH  60  66
ENDBRANCH  40  60
BRANCH  40  71
ATOM     70  N   UNL A   1     -26.277  -0.019  24.022  0.00  0.00    -0.196 NA
ATOM     71  C   UNL A   1     -25.180  -0.635  24.117  0.00  0.00    +0.074 C 
ENDBRANCH  40  71
ENDBRANCH  37  40
ENDBRANCH   1  37
TORSDOF 21
ENDMDL
MODEL 4
REMARK VINA RESULT:    -5.188      2.345      5.495
REMARK INTER + INTRA:         -13.444
REMARK INTER:                  -9.687
REMARK INTRA:                  -3.757
REMARK UNBOUND:                -2.949
REMARK  Name = 2520
REMARK  21 active torsions:
REMARK  status: ('A' for Active; 'I' for Inactive)
REMARK    1  A    between atoms: O_1  and  C_19
REMARK    2  A    between atoms: O_1  and  C_28
REMARK    3  A    between atoms: O_2  and  C_23
REMARK    4  A    between atoms: O_2  and  C_31
REMARK    5  A    between atoms: O_3  and  C_27
REMARK    6  A    between atoms: O_3  and  C_32
REMARK    7  A    between atoms: O_4  and  C_30
REMARK    8  A    between atoms: O_4  and  C_33
REMARK    9  A    between atoms: N_5  and  C_12
REMARK   10  A    between atoms: N_5  and  C_18
REMARK   11  A    between atoms: N_5  and  C_20
REMARK   12  A    between atoms: C_7  and  C_8
REMARK   13  A    between atoms: C_7  and  C_9
REMARK   14  A    between atoms: C_7  and  C_11
REMARK   15  A    between atoms: C_7  and  C_15
REMARK   16  A    between atoms: C_8  and  C_13
REMARK   17  A    between atoms: C_8  and  C_14
REMARK   18  A    between atoms: C_9  and  C_10
REMARK   19  A    between atoms: C_10  and  C_12
REMARK   20  A    between atoms: C_18  and  C_22
REMARK   21  A    between atoms: C_22  and  C_24
REMARK                            x       y       z     vdW  Elec       q    Type
REMARK                         _______ _______ _______ _____ _____    ______ ____
ROOT
ATOM      1  C   UNL A   1     -25.374  -5.378  21.974  0.00  0.00    -0.038 C 
ATOM      2  H   UNL A   1     -24.373  -5.528  22.392  0.00  0.00    +0.028 HD
ATOM      3  H   UNL A   1     -25.793  -6.363  21.753  0.00  0.00    +0.028 HD
ENDROOT
BRANCH   1   4
ATOM      4  C   UNL A   1     -25.216  -4.615  20.634  0.00  0.00    -0.001 C 
ATOM      5  H   UNL A   1     -25.719  -5.155  19.820  0.00  0.00    +0.043 HD
ATOM      6  H   UNL A   1     -25.750  -3.663  20.748  0.00  0.00    +0.043 HD
BRANCH   4   7
ATOM      7  N   UNL A   1     -23.793  -4.337  20.275  0.00  0.00    -0.305 NA
BRANCH   7   8
ATOM      8  C   UNL A   1     -22.901  -5.201  21.055  0.00  0.00    -0.013 C 
ATOM      9  H   UNL A   1     -22.004  -4.676  21.403  0.00  0.00    +0.039 HD
ATOM     10  H   UNL A   1     -23.420  -5.611  21.930  0.00  0.00    +0.039 HD
ATOM     11  H   UNL A   1     -22.592  -6.077  20.473  0.00  0.00    +0.039 HD
ENDBRANCH   7   8
BRANCH   7  12
ATOM     12  C   UNL A   1     -23.450  -2.893  20.424  0.00  0.00    +0.003 C 
ATOM     13  H   UNL A   1     -22.575  -2.836  21.079  0.00  0.00    +0.043 HD
ATOM     14  H   UNL A   1     -23.160  -2.491  19.446  0.00  0.00    +0.043 HD
BRANCH  12  15
ATOM     15  C   UNL A   1     -24.536  -1.945  21.024  0.00  0.00    -0.015 C 
ATOM     16  H   UNL A   1     -24.695  -1.121  20.315  0.00  0.00    +0.033 HD
ATOM     17  H   UNL A   1     -25.485  -2.487  21.117  0.00  0.00    +0.033 HD
BRANCH  15  18
ATOM     18  C   UNL A   1     -24.229  -1.266  22.358  0.00  0.00    -0.043 A 
ATOM     19  C   UNL A   1     -23.215  -1.686  23.235  0.00  0.00    -0.013 A 
ATOM     20  C   UNL A   1     -24.956  -0.121  22.710  0.00  0.00    -0.055 A 
ATOM     21  C   UNL A   1     -22.845  -0.931  24.373  0.00  0.00    +0.162 A 
ATOM     22  C   UNL A   1     -24.627   0.612  23.855  0.00  0.00    -0.016 A 
ATOM     23  C   UNL A   1     -23.558   0.237  24.679  0.00  0.00    +0.162 A 
ATOM     24  H   UNL A   1     -22.703  -2.617  23.021  0.00  0.00    +0.066 HD
ATOM     25  H   UNL A   1     -25.778   0.227  22.086  0.00  0.00    +0.062 HD
ATOM     26  H   UNL A   1     -25.203   1.503  24.100  0.00  0.00    +0.066 HD
BRANCH  23  27
ATOM     27  O   UNL A   1     -23.364   1.113  25.719  0.00  0.00    -0.491 OA
BRANCH  27  28
ATOM     28  C   UNL A   1     -23.771   2.467  25.564  0.00  0.00    +0.079 C 
ATOM     29  H   UNL A   1     -23.793   2.986  26.526  0.00  0.00    +0.066 HD
ATOM     30  H   UNL A   1     -23.160   2.992  24.822  0.00  0.00    +0.066 HD
ATOM     31  H   UNL A   1     -24.800   2.463  25.188  0.00  0.00    +0.066 HD
ENDBRANCH  27  28
ENDBRANCH  23  27
BRANCH  21  32
ATOM     32  O   UNL A   1     -21.814  -1.283  25.198  0.00  0.00    -0.491 OA
BRANCH  32  33
ATOM     33  C   UNL A   1     -20.598  -0.552  25.155  0.00  0.00    +0.079 C 
ATOM     34  H   UNL A   1     -20.258  -0.448  24.120  0.00  0.00    +0.066 HD
ATOM     35  H   UNL A   1     -20.669   0.423  25.651  0.00  0.00    +0.066 HD
ATOM     36  H   UNL A   1     -19.849  -1.129  25.703  0.00  0.00    +0.066 HD
ENDBRANCH  32  33
ENDBRANCH  21  32
ENDBRANCH  15  18
ENDBRANCH  12  15
ENDBRANCH   7  12
ENDBRANCH   4   7
ENDBRANCH   1   4
BRANCH   1  37
ATOM     37  C   UNL A   1     -26.273  -4.658  23.035  0.00  0.00    -0.029 C 
ATOM     38  H   UNL A   1     -27.299  -5.033  22.912  0.00  0.00    +0.028 HD
ATOM     39  H   UNL A   1     -26.344  -3.593  22.780  0.00  0.00    +0.028 HD
BRANCH  37  40
ATOM     40  C   UNL A   1     -25.821  -4.816  24.585  0.00  0.00    +0.085 C 
BRANCH  40  41
ATOM     41  C   UNL A   1     -26.254  -3.467  25.228  0.00  0.00    -0.024 A 
ATOM     42  C   UNL A   1     -25.539  -2.973  26.341  0.00  0.00    -0.012 A 
ATOM     43  C   UNL A   1     -27.219  -2.610  24.674  0.00  0.00    -0.053 A 
ATOM     44  C   UNL A   1     -25.714  -1.674  26.846  0.00  0.00    +0.162 A 
ATOM     45  C   UNL A   1     -27.461  -1.346  25.220  0.00  0.00    -0.016 A 
ATOM     46  C   UNL A   1     -26.723  -0.869  26.307  0.00  0.00    +0.162 A 
ATOM     47  H   UNL A   1     -24.787  -3.610  26.804  0.00  0.00    +0.066 HD
ATOM     48  H   UNL A   1     -27.785  -2.876  23.786  0.00  0.00    +0.062 HD
ATOM     49  H   UNL A   1     -28.221  -0.708  24.771  0.00  0.00    +0.066 HD
BRANCH  44  50
ATOM     50  O   UNL A   1     -24.908  -1.171  27.834  0.00  0.00    -0.491 OA
BRANCH  50  51
ATOM     51  C   UNL A   1     -25.363  -1.414  29.163  0.00  0.00    +0.079 C 
ATOM     52  H   UNL A   1     -25.947  -2.337  29.159  0.00  0.00    +0.066 HD
ATOM     53  H   UNL A   1     -24.517  -1.563  29.843  0.00  0.00    +0.066 HD
ATOM     54  H   UNL A   1     -26.015  -0.608  29.526  0.00  0.00    +0.066 HD
ENDBRANCH  50  51
ENDBRANCH  44  50
BRANCH  46  55
ATOM     55  O   UNL A   1     -27.034   0.419  26.655  0.00  0.00    -0.491 OA
BRANCH  55  56
ATOM     56  C   UNL A   1     -28.120   0.586  27.557  0.00  0.00    +0.079 C 
ATOM     57  H   UNL A   1     -28.547   1.594  27.510  0.00  0.00    +0.066 HD
ATOM     58  H   UNL A   1     -28.881  -0.182  27.393  0.00  0.00    +0.066 HD
ATOM     59  H   UNL A   1     -27.730   0.439  28.569  0.00  0.00    +0.066 HD
ENDBRANCH  55  56
ENDBRANCH  46  55
ENDBRANCH  40  41
BRANCH  40  60
ATOM     60  C   UNL A   1     -26.516  -6.096  25.197  0.00  0.00    -0.024 C 
ATOM     61  H   UNL A   1     -26.190  -6.968  24.615  0.00  0.00    +0.031 HD
BRANCH  60  62
ATOM     62  C   UNL A   1     -28.051  -6.101  25.141  0.00  0.00    -0.061 C 
ATOM     63  H   UNL A   1     -28.460  -5.200  24.669  0.00  0.00    +0.023 HD
ATOM     64  H   UNL A   1     -28.398  -6.946  24.536  0.00  0.00    +0.023 HD
ATOM     65  H   UNL A   1     -28.496  -6.192  26.134  0.00  0.00    +0.023 HD
ENDBRANCH  60  62
BRANCH  60  66
ATOM     66  C   UNL A   1     -26.103  -6.403  26.648  0.00  0.00    -0.061 C 
ATOM     67  H   UNL A   1     -25.144  -5.942  26.900  0.00  0.00    +0.023 HD
ATOM     68  H   UNL A   1     -26.854  -6.015  27.348  0.00  0.00    +0.023 HD
ATOM     69  H   UNL A   1     -26.036  -7.477  26.839  0.00  0.00    +0.023 HD
ENDBRANCH  60  66
ENDBRANCH  40  60
BRANCH  40  71
ATOM     70  N   UNL A   1     -23.047  -5.008  24.658  0.00  0.00    -0.196 NA
ATOM     71  C   UNL A   1     -24.306  -4.921  24.625  0.00  0.00    +0.074 C 
ENDBRANCH  40  71
ENDBRANCH  37  40
ENDBRANCH   1  37
TORSDOF 21
ENDMDL
MODEL 5
REMARK VINA RESULT:    -5.001      2.086      3.640
REMARK INTER + INTRA:         -13.067
REMARK INTER:                 -10.093
REMARK INTRA:                  -2.974
REMARK UNBOUND:                -2.949
REMARK  Name = 2520
REMARK  21 active torsions:
REMARK  status: ('A' for Active; 'I' for Inactive)
REMARK    1  A    between atoms: O_1  and  C_19
REMARK    2  A    between atoms: O_1  and  C_28
REMARK    3  A    between atoms: O_2  and  C_23
REMARK    4  A    between atoms: O_2  and  C_31
REMARK    5  A    between atoms: O_3  and  C_27
REMARK    6  A    between atoms: O_3  and  C_32
REMARK    7  A    between atoms: O_4  and  C_30
REMARK    8  A    between atoms: O_4  and  C_33
REMARK    9  A    between atoms: N_5  and  C_12
REMARK   10  A    between atoms: N_5  and  C_18
REMARK   11  A    between atoms: N_5  and  C_20
REMARK   12  A    between atoms: C_7  and  C_8
REMARK   13  A    between atoms: C_7  and  C_9
REMARK   14  A    between atoms: C_7  and  C_11
REMARK   15  A    between atoms: C_7  and  C_15
REMARK   16  A    between atoms: C_8  and  C_13
REMARK   17  A    between atoms: C_8  and  C_14
REMARK   18  A    between atoms: C_9  and  C_10
REMARK   19  A    between atoms: C_10  and  C_12
REMARK   20  A    between atoms: C_18  and  C_22
REMARK   21  A    between atoms: C_22  and  C_24
REMARK                            x       y       z     vdW  Elec       q    Type
REMARK                         _______ _______ _______ _____ _____    ______ ____
ROOT
ATOM      1  C   UNL A   1     -23.050  -1.736  23.612  0.00  0.00    -0.038 C 
ATOM      2  H   UNL A   1     -23.330  -0.727  23.294  0.00  0.00    +0.028 HD
ATOM      3  H   UNL A   1     -22.121  -1.999  23.099  0.00  0.00    +0.028 HD
ENDROOT
BRANCH   1   4
ATOM      4  C   UNL A   1     -24.155  -2.709  23.126  0.00  0.00    -0.001 C 
ATOM      5  H   UNL A   1     -24.822  -2.982  23.955  0.00  0.00    +0.043 HD
ATOM      6  H   UNL A   1     -24.770  -2.154  22.405  0.00  0.00    +0.043 HD
BRANCH   4   7
ATOM      7  N   UNL A   1     -23.615  -3.935  22.465  0.00  0.00    -0.305 NA
BRANCH   7   8
ATOM      8  C   UNL A   1     -24.080  -4.001  21.075  0.00  0.00    -0.013 C 
ATOM      9  H   UNL A   1     -24.653  -4.912  20.866  0.00  0.00    +0.039 HD
ATOM     10  H   UNL A   1     -24.709  -3.136  20.832  0.00  0.00    +0.039 HD
ATOM     11  H   UNL A   1     -23.239  -3.946  20.375  0.00  0.00    +0.039 HD
ENDBRANCH   7   8
BRANCH   7  12
ATOM     12  C   UNL A   1     -23.945  -5.173  23.228  0.00  0.00    +0.003 C 
ATOM     13  H   UNL A   1     -25.035  -5.272  23.227  0.00  0.00    +0.043 HD
ATOM     14  H   UNL A   1     -23.533  -6.040  22.698  0.00  0.00    +0.043 HD
BRANCH  12  15
ATOM     15  C   UNL A   1     -23.475  -5.260  24.714  0.00  0.00    -0.015 C 
ATOM     16  H   UNL A   1     -22.871  -6.171  24.827  0.00  0.00    +0.033 HD
ATOM     17  H   UNL A   1     -22.828  -4.405  24.945  0.00  0.00    +0.033 HD
BRANCH  15  18
ATOM     18  C   UNL A   1     -24.551  -5.362  25.795  0.00  0.00    -0.043 A 
ATOM     19  C   UNL A   1     -25.856  -4.861  25.651  0.00  0.00    -0.013 A 
ATOM     20  C   UNL A   1     -24.247  -6.046  26.980  0.00  0.00    -0.055 A 
ATOM     21  C   UNL A   1     -26.872  -5.127  26.599  0.00  0.00    +0.162 A 
ATOM     22  C   UNL A   1     -25.233  -6.280  27.944  0.00  0.00    -0.016 A 
ATOM     23  C   UNL A   1     -26.554  -5.854  27.755  0.00  0.00    +0.162 A 
ATOM     24  H   UNL A   1     -26.081  -4.256  24.781  0.00  0.00    +0.066 HD
ATOM     25  H   UNL A   1     -23.241  -6.421  27.161  0.00  0.00    +0.062 HD
ATOM     26  H   UNL A   1     -24.972  -6.822  28.852  0.00  0.00    +0.066 HD
BRANCH  23  27
ATOM     27  O   UNL A   1     -27.380  -6.226  28.787  0.00  0.00    -0.491 OA
BRANCH  27  28
ATOM     28  C   UNL A   1     -26.901  -6.124  30.123  0.00  0.00    +0.079 C 
ATOM     29  H   UNL A   1     -27.560  -6.646  30.821  0.00  0.00    +0.066 HD
ATOM     30  H   UNL A   1     -25.860  -6.455  30.206  0.00  0.00    +0.066 HD
ATOM     31  H   UNL A   1     -26.924  -5.066  30.404  0.00  0.00    +0.066 HD
ENDBRANCH  27  28
ENDBRANCH  23  27
BRANCH  21  32
ATOM     32  O   UNL A   1     -28.164  -4.712  26.442  0.00  0.00    -0.491 OA
BRANCH  32  33
ATOM     33  C   UNL A   1     -28.992  -5.339  25.474  0.00  0.00    +0.079 C 
ATOM     34  H   UNL A   1     -28.376  -5.812  24.703  0.00  0.00    +0.066 HD
ATOM     35  H   UNL A   1     -29.698  -6.051  25.914  0.00  0.00    +0.066 HD
ATOM     36  H   UNL A   1     -29.590  -4.557  24.998  0.00  0.00    +0.066 HD
ENDBRANCH  32  33
ENDBRANCH  21  32
ENDBRANCH  15  18
ENDBRANCH  12  15
ENDBRANCH   7  12
ENDBRANCH   4   7
ENDBRANCH   1   4
BRANCH   1  37
ATOM     37  C   UNL A   1     -22.808  -1.741  25.159  0.00  0.00    -0.029 C 
ATOM     38  H   UNL A   1     -21.783  -2.098  25.335  0.00  0.00    +0.028 HD
ATOM     39  H   UNL A   1     -23.442  -2.509  25.618  0.00  0.00    +0.028 HD
BRANCH  37  40
ATOM     40  C   UNL A   1     -23.028  -0.327  25.924  0.00  0.00    +0.085 C 
BRANCH  40  41
ATOM     41  C   UNL A   1     -24.028  -0.683  27.062  0.00  0.00    -0.024 A 
ATOM     42  C   UNL A   1     -24.789   0.347  27.657  0.00  0.00    -0.012 A 
ATOM     43  C   UNL A   1     -24.353  -1.996  27.436  0.00  0.00    -0.053 A 
ATOM     44  C   UNL A   1     -25.863   0.098  28.527  0.00  0.00    +0.162 A 
ATOM     45  C   UNL A   1     -25.365  -2.254  28.365  0.00  0.00    -0.016 A 
ATOM     46  C   UNL A   1     -26.122  -1.219  28.922  0.00  0.00    +0.162 A 
ATOM     47  H   UNL A   1     -24.564   1.380  27.398  0.00  0.00    +0.066 HD
ATOM     48  H   UNL A   1     -23.861  -2.860  26.997  0.00  0.00    +0.062 HD
ATOM     49  H   UNL A   1     -25.588  -3.284  28.640  0.00  0.00    +0.066 HD
BRANCH  44  50
ATOM     50  O   UNL A   1     -26.675   1.107  28.976  0.00  0.00    -0.491 OA
BRANCH  50  51
ATOM     51  C   UNL A   1     -27.497   1.708  27.978  0.00  0.00    +0.079 C 
ATOM     52  H   UNL A   1     -27.165   1.345  27.002  0.00  0.00    +0.066 HD
ATOM     53  H   UNL A   1     -28.543   1.408  28.103  0.00  0.00    +0.066 HD
ATOM     54  H   UNL A   1     -27.404   2.802  27.977  0.00  0.00    +0.066 HD
ENDBRANCH  50  51
ENDBRANCH  44  50
BRANCH  46  55
ATOM     55  O   UNL A   1     -27.125  -1.658  29.746  0.00  0.00    -0.491 OA
BRANCH  55  56
ATOM     56  C   UNL A   1     -28.177  -2.388  29.128  0.00  0.00    +0.079 C 
ATOM     57  H   UNL A   1     -29.166  -2.014  29.416  0.00  0.00    +0.066 HD
ATOM     58  H   UNL A   1     -28.052  -2.404  28.042  0.00  0.00    +0.066 HD
ATOM     59  H   UNL A   1     -28.102  -3.424  29.474  0.00  0.00    +0.066 HD
ENDBRANCH  55  56
ENDBRANCH  46  55
ENDBRANCH  40  41
BRANCH  40  60
ATOM     60  C   UNL A   1     -21.629   0.216  26.417  0.00  0.00    -0.024 C 
ATOM     61  H   UNL A   1     -21.416  -0.236  27.395  0.00  0.00    +0.031 HD
BRANCH  60  62
ATOM     62  C   UNL A   1     -21.550   1.735  26.628  0.00  0.00    -0.061 C 
ATOM     63  H   UNL A   1     -20.890   2.229  25.906  0.00  0.00    +0.023 HD
ATOM     64  H   UNL A   1     -22.541   2.182  26.491  0.00  0.00    +0.023 HD
ATOM     65  H   UNL A   1     -21.202   1.990  27.631  0.00  0.00    +0.023 HD
ENDBRANCH  60  62
BRANCH  60  66
ATOM     66  C   UNL A   1     -20.444  -0.190  25.521  0.00  0.00    -0.061 C 
ATOM     67  H   UNL A   1     -20.784  -0.603  24.566  0.00  0.00    +0.023 HD
ATOM     68  H   UNL A   1     -19.815   0.682  25.303  0.00  0.00    +0.023 HD
ATOM     69  H   UNL A   1     -19.792  -0.921  26.005  0.00  0.00    +0.023 HD
ENDBRANCH  60  66
ENDBRANCH  40  60
BRANCH  40  71
ATOM     70  N   UNL A   1     -24.255   1.431  24.152  0.00  0.00    -0.196 NA
ATOM     71  C   UNL A   1     -23.698   0.633  24.956  0.00  0.00    +0.074 C 
ENDBRANCH  40  71
ENDBRANCH  37  40
ENDBRANCH   1  37
TORSDOF 21
ENDMDL
MODEL 6
REMARK VINA RESULT:    -4.990     34.774     38.087
REMARK INTER + INTRA:         -13.043
REMARK INTER:                  -9.391
REMARK INTRA:                  -3.652
REMARK UNBOUND:                -2.949
REMARK  Name = 2520
REMARK  21 active torsions:
REMARK  status: ('A' for Active; 'I' for Inactive)
REMARK    1  A    between atoms: O_1  and  C_19
REMARK    2  A    between atoms: O_1  and  C_28
REMARK    3  A    between atoms: O_2  and  C_23
REMARK    4  A    between atoms: O_2  and  C_31
REMARK    5  A    between atoms: O_3  and  C_27
REMARK    6  A    between atoms: O_3  and  C_32
REMARK    7  A    between atoms: O_4  and  C_30
REMARK    8  A    between atoms: O_4  and  C_33
REMARK    9  A    between atoms: N_5  and  C_12
REMARK   10  A    between atoms: N_5  and  C_18
REMARK   11  A    between atoms: N_5  and  C_20
REMARK   12  A    between atoms: C_7  and  C_8
REMARK   13  A    between atoms: C_7  and  C_9
REMARK   14  A    between atoms: C_7  and  C_11
REMARK   15  A    between atoms: C_7  and  C_15
REMARK   16  A    between atoms: C_8  and  C_13
REMARK   17  A    between atoms: C_8  and  C_14
REMARK   18  A    between atoms: C_9  and  C_10
REMARK   19  A    between atoms: C_10  and  C_12
REMARK   20  A    between atoms: C_18  and  C_22
REMARK   21  A    between atoms: C_22  and  C_24
REMARK                            x       y       z     vdW  Elec       q    Type
REMARK                         _______ _______ _______ _____ _____    ______ ____
ROOT
ATOM      1  C   UNL A   1     -19.181   9.626  -6.757  0.00  0.00    -0.038 C 
ATOM      2  H   UNL A   1     -18.145   9.611  -7.109  0.00  0.00    +0.028 HD
ATOM      3  H   UNL A   1     -19.166   9.859  -5.689  0.00  0.00    +0.028 HD
ENDROOT
BRANCH   1   4
ATOM      4  C   UNL A   1     -19.759   8.197  -6.925  0.00  0.00    -0.001 C 
ATOM      5  H   UNL A   1     -19.842   7.697  -5.951  0.00  0.00    +0.043 HD
ATOM      6  H   UNL A   1     -20.783   8.313  -7.301  0.00  0.00    +0.043 HD
BRANCH   4   7
ATOM      7  N   UNL A   1     -18.981   7.353  -7.881  0.00  0.00    -0.305 NA
BRANCH   7   8
ATOM      8  C   UNL A   1     -17.572   7.763  -7.879  0.00  0.00    -0.013 C 
ATOM      9  H   UNL A   1     -16.917   7.017  -7.414  0.00  0.00    +0.039 HD
ATOM     10  H   UNL A   1     -17.216   7.943  -8.900  0.00  0.00    +0.039 HD
ATOM     11  H   UNL A   1     -17.440   8.719  -7.360  0.00  0.00    +0.039 HD
ENDBRANCH   7   8
BRANCH   7  12
ATOM     12  C   UNL A   1     -19.570   7.371  -9.251  0.00  0.00    +0.003 C 
ATOM     13  H   UNL A   1     -19.188   8.266  -9.754  0.00  0.00    +0.043 HD
ATOM     14  H   UNL A   1     -19.208   6.498  -9.807  0.00  0.00    +0.043 HD
BRANCH  12  15
ATOM     15  C   UNL A   1     -21.125   7.402  -9.375  0.00  0.00    -0.015 C 
ATOM     16  H   UNL A   1     -21.434   6.546  -9.992  0.00  0.00    +0.033 HD
ATOM     17  H   UNL A   1     -21.575   7.271  -8.383  0.00  0.00    +0.033 HD
BRANCH  15  18
ATOM     18  C   UNL A   1     -21.762   8.620 -10.041  0.00  0.00    -0.043 A 
ATOM     19  C   UNL A   1     -22.774   9.396  -9.450  0.00  0.00    -0.013 A 
ATOM     20  C   UNL A   1     -21.275   9.034 -11.288  0.00  0.00    -0.055 A 
ATOM     21  C   UNL A   1     -23.216  10.615 -10.018  0.00  0.00    +0.162 A 
ATOM     22  C   UNL A   1     -21.733  10.216 -11.879  0.00  0.00    -0.016 A 
ATOM     23  C   UNL A   1     -22.679  11.031 -11.244  0.00  0.00    +0.162 A 
ATOM     24  H   UNL A   1     -23.222   9.042  -8.529  0.00  0.00    +0.066 HD
ATOM     25  H   UNL A   1     -20.518   8.449 -11.808  0.00  0.00    +0.062 HD
ATOM     26  H   UNL A   1     -21.331  10.519 -12.845  0.00  0.00    +0.066 HD
BRANCH  23  27
ATOM     27  O   UNL A   1     -22.957  12.170 -11.959  0.00  0.00    -0.491 OA
BRANCH  27  28
ATOM     28  C   UNL A   1     -23.474  12.045 -13.279  0.00  0.00    +0.079 C 
ATOM     29  H   UNL A   1     -22.689  12.186 -14.026  0.00  0.00    +0.066 HD
ATOM     30  H   UNL A   1     -24.014  11.101 -13.415  0.00  0.00    +0.066 HD
ATOM     31  H   UNL A   1     -24.197  12.853 -13.429  0.00  0.00    +0.066 HD
ENDBRANCH  27  28
ENDBRANCH  23  27
BRANCH  21  32
ATOM     32  O   UNL A   1     -24.146  11.420  -9.423  0.00  0.00    -0.491 OA
BRANCH  32  33
ATOM     33  C   UNL A   1     -23.756  12.279  -8.362  0.00  0.00    +0.079 C 
ATOM     34  H   UNL A   1     -24.586  12.411  -7.661  0.00  0.00    +0.066 HD
ATOM     35  H   UNL A   1     -22.850  11.939  -7.849  0.00  0.00    +0.066 HD
ATOM     36  H   UNL A   1     -23.522  13.254  -8.798  0.00  0.00    +0.066 HD
ENDBRANCH  32  33
ENDBRANCH  21  32
ENDBRANCH  15  18
ENDBRANCH  12  15
ENDBRANCH   7  12
ENDBRANCH   4   7
ENDBRANCH   1   4
BRANCH   1  37
ATOM     37  C   UNL A   1     -19.969  10.744  -7.520  0.00  0.00    -0.029 C 
ATOM     38  H   UNL A   1     -20.786  11.082  -6.866  0.00  0.00    +0.028 HD
ATOM     39  H   UNL A   1     -20.482  10.296  -8.380  0.00  0.00    +0.028 HD
BRANCH  37  40
ATOM     40  C   UNL A   1     -19.103  12.024  -8.011  0.00  0.00    +0.085 C 
BRANCH  40  41
ATOM     41  C   UNL A   1     -18.922  11.776  -9.537  0.00  0.00    -0.024 A 
ATOM     42  C   UNL A   1     -19.396  12.741 -10.453  0.00  0.00    -0.012 A 
ATOM     43  C   UNL A   1     -18.167  10.722 -10.074  0.00  0.00    -0.053 A 
ATOM     44  C   UNL A   1     -19.087  12.711 -11.823  0.00  0.00    +0.162 A 
ATOM     45  C   UNL A   1     -17.922  10.635 -11.448  0.00  0.00    -0.016 A 
ATOM     46  C   UNL A   1     -18.380  11.616 -12.332  0.00  0.00    +0.162 A 
ATOM     47  H   UNL A   1     -19.993  13.571 -10.076  0.00  0.00    +0.066 HD
ATOM     48  H   UNL A   1     -17.714   9.959  -9.447  0.00  0.00    +0.062 HD
ATOM     49  H   UNL A   1     -17.337   9.801 -11.834  0.00  0.00    +0.066 HD
BRANCH  44  50
ATOM     50  O   UNL A   1     -19.438  13.734 -12.663  0.00  0.00    -0.491 OA
BRANCH  50  51
ATOM     51  C   UNL A   1     -18.529  14.833 -12.687  0.00  0.00    +0.079 C 
ATOM     52  H   UNL A   1     -19.001  15.675 -12.176  0.00  0.00    +0.066 HD
ATOM     53  H   UNL A   1     -17.610  14.590 -12.142  0.00  0.00    +0.066 HD
ATOM     54  H   UNL A   1     -18.300  15.151 -13.713  0.00  0.00    +0.066 HD
ENDBRANCH  50  51
ENDBRANCH  44  50
BRANCH  46  55
ATOM     55  O   UNL A   1     -17.977  11.416 -13.626  0.00  0.00    -0.491 OA
BRANCH  55  56
ATOM     56  C   UNL A   1     -18.524  10.286 -14.292  0.00  0.00    +0.079 C 
ATOM     57  H   UNL A   1     -19.524  10.031 -13.923  0.00  0.00    +0.066 HD
ATOM     58  H   UNL A   1     -18.519  10.435 -15.375  0.00  0.00    +0.066 HD
ATOM     59  H   UNL A   1     -17.868   9.434 -14.084  0.00  0.00    +0.066 HD
ENDBRANCH  55  56
ENDBRANCH  46  55
ENDBRANCH  40  41
BRANCH  40  60
ATOM     60  C   UNL A   1     -19.883  13.347  -7.642  0.00  0.00    -0.024 C 
ATOM     61  H   UNL A   1     -20.573  13.574  -8.466  0.00  0.00    +0.031 HD
BRANCH  60  62
ATOM     62  C   UNL A   1     -19.010  14.599  -7.467  0.00  0.00    -0.061 C 
ATOM     63  H   UNL A   1     -17.938  14.377  -7.524  0.00  0.00    +0.023 HD
ATOM     64  H   UNL A   1     -19.217  15.313  -8.271  0.00  0.00    +0.023 HD
ATOM     65  H   UNL A   1     -19.200  15.099  -6.515  0.00  0.00    +0.023 HD
ENDBRANCH  60  62
BRANCH  60  66
ATOM     66  C   UNL A   1     -20.776  13.225  -6.393  0.00  0.00    -0.061 C 
ATOM     67  H   UNL A   1     -21.319  12.275  -6.378  0.00  0.00    +0.023 HD
ATOM     68  H   UNL A   1     -20.166  13.276  -5.483  0.00  0.00    +0.023 HD
ATOM     69  H   UNL A   1     -21.498  14.041  -6.321  0.00  0.00    +0.023 HD
ENDBRANCH  60  66
ENDBRANCH  40  60
BRANCH  40  71
ATOM     70  N   UNL A   1     -16.616  11.909  -6.771  0.00  0.00    -0.196 NA
ATOM     71  C   UNL A   1     -17.744  11.962  -7.334  0.00  0.00    +0.074 C 
ENDBRANCH  40  71
ENDBRANCH  37  40
ENDBRANCH   1  37
TORSDOF 21
ENDMDL
MODEL 7
REMARK VINA RESULT:    -4.878      2.638      5.722
REMARK INTER + INTRA:         -12.817
REMARK INTER:                  -9.888
REMARK INTRA:                  -2.929
REMARK UNBOUND:                -2.949
REMARK  Name = 2520
REMARK  21 active torsions:
REMARK  status: ('A' for Active; 'I' for Inactive)
REMARK    1  A    between atoms: O_1  and  C_19
REMARK    2  A    between atoms: O_1  and  C_28
REMARK    3  A    between atoms: O_2  and  C_23
REMARK    4  A    between atoms: O_2  and  C_31
REMARK    5  A    between atoms: O_3  and  C_27
REMARK    6  A    between atoms: O_3  and  C_32
REMARK    7  A    between atoms: O_4  and  C_30
REMARK    8  A    between atoms: O_4  and  C_33
REMARK    9  A    between atoms: N_5  and  C_12
REMARK   10  A    between atoms: N_5  and  C_18
REMARK   11  A    between atoms: N_5  and  C_20
REMARK   12  A    between atoms: C_7  and  C_8
REMARK   13  A    between atoms: C_7  and  C_9
REMARK   14  A    between atoms: C_7  and  C_11
REMARK   15  A    between atoms: C_7  and  C_15
REMARK   16  A    between atoms: C_8  and  C_13
REMARK   17  A    between atoms: C_8  and  C_14
REMARK   18  A    between atoms: C_9  and  C_10
REMARK   19  A    between atoms: C_10  and  C_12
REMARK   20  A    between atoms: C_18  and  C_22
REMARK   21  A    between atoms: C_22  and  C_24
REMARK                            x       y       z     vdW  Elec       q    Type
REMARK                         _______ _______ _______ _____ _____    ______ ____
ROOT
ATOM      1  C   UNL A   1     -23.328  -5.315  25.003  0.00  0.00    -0.038 C 
ATOM      2  H   UNL A   1     -22.532  -5.035  25.699  0.00  0.00    +0.028 HD
ATOM      3  H   UNL A   1     -23.594  -6.356  25.204  0.00  0.00    +0.028 HD
ENDROOT
BRANCH   1   4
ATOM      4  C   UNL A   1     -22.747  -5.240  23.567  0.00  0.00    -0.001 C 
ATOM      5  H   UNL A   1     -22.097  -4.362  23.458  0.00  0.00    +0.043 HD
ATOM      6  H   UNL A   1     -22.101  -6.119  23.442  0.00  0.00    +0.043 HD
BRANCH   4   7
ATOM      7  N   UNL A   1     -23.795  -5.250  22.503  0.00  0.00    -0.305 NA
BRANCH   7   8
ATOM      8  C   UNL A   1     -23.736  -6.508  21.752  0.00  0.00    -0.013 C 
ATOM      9  H   UNL A   1     -22.969  -7.191  22.136  0.00  0.00    +0.039 HD
ATOM     10  H   UNL A   1     -24.702  -7.026  21.780  0.00  0.00    +0.039 HD
ATOM     11  H   UNL A   1     -23.544  -6.324  20.690  0.00  0.00    +0.039 HD
ENDBRANCH   7   8
BRANCH   7  12
ATOM     12  C   UNL A   1     -23.699  -4.057  21.612  0.00  0.00    +0.003 C 
ATOM     13  H   UNL A   1     -22.687  -3.654  21.721  0.00  0.00    +0.043 HD
ATOM     14  H   UNL A   1     -23.817  -4.380  20.570  0.00  0.00    +0.043 HD
BRANCH  12  15
ATOM     15  C   UNL A   1     -24.693  -2.880  21.860  0.00  0.00    -0.015 C 
ATOM     16  H   UNL A   1     -24.927  -2.423  20.889  0.00  0.00    +0.033 HD
ATOM     17  H   UNL A   1     -25.631  -3.272  22.272  0.00  0.00    +0.033 HD
BRANCH  15  18
ATOM     18  C   UNL A   1     -24.221  -1.724  22.739  0.00  0.00    -0.043 A 
ATOM     19  C   UNL A   1     -25.088  -0.823  23.381  0.00  0.00    -0.013 A 
ATOM     20  C   UNL A   1     -22.847  -1.579  22.975  0.00  0.00    -0.055 A 
ATOM     21  C   UNL A   1     -24.624   0.124  24.325  0.00  0.00    +0.162 A 
ATOM     22  C   UNL A   1     -22.372  -0.618  23.875  0.00  0.00    -0.016 A 
ATOM     23  C   UNL A   1     -23.248   0.219  24.578  0.00  0.00    +0.162 A 
ATOM     24  H   UNL A   1     -26.143  -0.867  23.141  0.00  0.00    +0.066 HD
ATOM     25  H   UNL A   1     -22.128  -2.224  22.474  0.00  0.00    +0.062 HD
ATOM     26  H   UNL A   1     -21.300  -0.533  24.046  0.00  0.00    +0.066 HD
BRANCH  23  27
ATOM     27  O   UNL A   1     -22.593   1.053  25.450  0.00  0.00    -0.491 OA
BRANCH  27  28
ATOM     28  C   UNL A   1     -22.408   0.633  26.797  0.00  0.00    +0.079 C 
ATOM     29  H   UNL A   1     -22.885   1.325  27.496  0.00  0.00    +0.066 HD
ATOM     30  H   UNL A   1     -22.735  -0.402  26.947  0.00  0.00    +0.066 HD
ATOM     31  H   UNL A   1     -21.334   0.664  27.010  0.00  0.00    +0.066 HD
ENDBRANCH  27  28
ENDBRANCH  23  27
BRANCH  21  32
ATOM     32  O   UNL A   1     -25.458   0.959  25.014  0.00  0.00    -0.491 OA
BRANCH  32  33
ATOM     33  C   UNL A   1     -26.030   2.080  24.357  0.00  0.00    +0.079 C 
ATOM     34  H   UNL A   1     -25.906   1.985  23.274  0.00  0.00    +0.066 HD
ATOM     35  H   UNL A   1     -27.080   2.240  24.626  0.00  0.00    +0.066 HD
ATOM     36  H   UNL A   1     -25.483   2.967  24.685  0.00  0.00    +0.066 HD
ENDBRANCH  32  33
ENDBRANCH  21  32
ENDBRANCH  15  18
ENDBRANCH  12  15
ENDBRANCH   7  12
ENDBRANCH   4   7
ENDBRANCH   1   4
BRANCH   1  37
ATOM     37  C   UNL A   1     -24.577  -4.404  25.251  0.00  0.00    -0.029 C 
ATOM     38  H   UNL A   1     -25.121  -4.317  24.299  0.00  0.00    +0.028 HD
ATOM     39  H   UNL A   1     -24.238  -3.382  25.461  0.00  0.00    +0.028 HD
BRANCH  37  40
ATOM     40  C   UNL A   1     -25.598  -4.887  26.415  0.00  0.00    +0.085 C 
BRANCH  40  41
ATOM     41  C   UNL A   1     -25.852  -3.589  27.236  0.00  0.00    -0.024 A 
ATOM     42  C   UNL A   1     -26.606  -3.665  28.427  0.00  0.00    -0.012 A 
ATOM     43  C   UNL A   1     -25.240  -2.357  26.959  0.00  0.00    -0.053 A 
ATOM     44  C   UNL A   1     -26.701  -2.601  29.339  0.00  0.00    +0.162 A 
ATOM     45  C   UNL A   1     -25.396  -1.264  27.818  0.00  0.00    -0.016 A 
ATOM     46  C   UNL A   1     -26.127  -1.370  29.005  0.00  0.00    +0.162 A 
ATOM     47  H   UNL A   1     -27.103  -4.602  28.674  0.00  0.00    +0.066 HD
ATOM     48  H   UNL A   1     -24.598  -2.212  26.096  0.00  0.00    +0.062 HD
ATOM     49  H   UNL A   1     -24.914  -0.319  27.572  0.00  0.00    +0.066 HD
BRANCH  44  50
ATOM     50  O   UNL A   1     -27.319  -2.747  30.554  0.00  0.00    -0.491 OA
BRANCH  50  51
ATOM     51  C   UNL A   1     -27.060  -3.983  31.216  0.00  0.00    +0.079 C 
ATOM     52  H   UNL A   1     -27.717  -4.742  30.785  0.00  0.00    +0.066 HD
ATOM     53  H   UNL A   1     -26.027  -4.306  31.048  0.00  0.00    +0.066 HD
ATOM     54  H   UNL A   1     -27.279  -3.924  32.291  0.00  0.00    +0.066 HD
ENDBRANCH  50  51
ENDBRANCH  44  50
BRANCH  46  55
ATOM     55  O   UNL A   1     -26.104  -0.230  29.764  0.00  0.00    -0.491 OA
BRANCH  55  56
ATOM     56  C   UNL A   1     -27.191   0.670  29.590  0.00  0.00    +0.079 C 
ATOM     57  H   UNL A   1     -27.832   0.722  30.476  0.00  0.00    +0.066 HD
ATOM     58  H   UNL A   1     -26.832   1.658  29.292  0.00  0.00    +0.066 HD
ATOM     59  H   UNL A   1     -27.800   0.289  28.763  0.00  0.00    +0.066 HD
ENDBRANCH  55  56
ENDBRANCH  46  55
ENDBRANCH  40  41
BRANCH  40  60
ATOM     60  C   UNL A   1     -26.885  -5.511  25.746  0.00  0.00    -0.024 C 
ATOM     61  H   UNL A   1     -27.749  -4.901  26.041  0.00  0.00    +0.031 HD
BRANCH  60  62
ATOM     62  C   UNL A   1     -27.218  -6.949  26.174  0.00  0.00    -0.061 C 
ATOM     63  H   UNL A   1     -27.448  -7.600  25.323  0.00  0.00    +0.023 HD
ATOM     64  H   UNL A   1     -26.353  -7.397  26.676  0.00  0.00    +0.023 HD
ATOM     65  H   UNL A   1     -28.063  -6.984  26.864  0.00  0.00    +0.023 HD
ENDBRANCH  60  62
BRANCH  60  66
ATOM     66  C   UNL A   1     -26.875  -5.475  24.206  0.00  0.00    -0.061 C 
ATOM     67  H   UNL A   1     -27.670  -4.835  23.813  0.00  0.00    +0.023 HD
ATOM     68  H   UNL A   1     -25.918  -5.083  23.841  0.00  0.00    +0.023 HD
ATOM     69  H   UNL A   1     -26.982  -6.472  23.770  0.00  0.00    +0.023 HD
ENDBRANCH  60  66
ENDBRANCH  40  60
BRANCH  40  71
ATOM     70  N   UNL A   1     -24.266  -6.730  28.018  0.00  0.00    -0.196 NA
ATOM     71  C   UNL A   1     -24.871  -5.894  27.291  0.00  0.00    +0.074 C 
ENDBRANCH  40  71
ENDBRANCH  37  40
ENDBRANCH   1  37
TORSDOF 21
ENDMDL
MODEL 8
REMARK VINA RESULT:    -4.746      3.102      6.343
REMARK INTER + INTRA:         -12.551
REMARK INTER:                 -10.535
REMARK INTRA:                  -2.016
REMARK UNBOUND:                -2.949
REMARK  Name = 2520
REMARK  21 active torsions:
REMARK  status: ('A' for Active; 'I' for Inactive)
REMARK    1  A    between atoms: O_1  and  C_19
REMARK    2  A    between atoms: O_1  and  C_28
REMARK    3  A    between atoms: O_2  and  C_23
REMARK    4  A    between atoms: O_2  and  C_31
REMARK    5  A    between atoms: O_3  and  C_27
REMARK    6  A    between atoms: O_3  and  C_32
REMARK    7  A    between atoms: O_4  and  C_30
REMARK    8  A    between atoms: O_4  and  C_33
REMARK    9  A    between atoms: N_5  and  C_12
REMARK   10  A    between atoms: N_5  and  C_18
REMARK   11  A    between atoms: N_5  and  C_20
REMARK   12  A    between atoms: C_7  and  C_8
REMARK   13  A    between atoms: C_7  and  C_9
REMARK   14  A    between atoms: C_7  and  C_11
REMARK   15  A    between atoms: C_7  and  C_15
REMARK   16  A    between atoms: C_8  and  C_13
REMARK   17  A    between atoms: C_8  and  C_14
REMARK   18  A    between atoms: C_9  and  C_10
REMARK   19  A    between atoms: C_10  and  C_12
REMARK   20  A    between atoms: C_18  and  C_22
REMARK   21  A    between atoms: C_22  and  C_24
REMARK                            x       y       z     vdW  Elec       q    Type
REMARK                         _______ _______ _______ _____ _____    ______ ____
ROOT
ATOM      1  C   UNL A   1     -25.141  -2.304  26.779  0.00  0.00    -0.038 C 
ATOM      2  H   UNL A   1     -24.342  -3.036  26.628  0.00  0.00    +0.028 HD
ATOM      3  H   UNL A   1     -25.308  -1.793  25.827  0.00  0.00    +0.028 HD
ENDROOT
BRANCH   1   4
ATOM      4  C   UNL A   1     -24.633  -1.254  27.801  0.00  0.00    -0.001 C 
ATOM      5  H   UNL A   1     -25.421  -0.523  28.028  0.00  0.00    +0.043 HD
ATOM      6  H   UNL A   1     -24.435  -1.794  28.736  0.00  0.00    +0.043 HD
BRANCH   4   7
ATOM      7  N   UNL A   1     -23.385  -0.559  27.364  0.00  0.00    -0.305 NA
BRANCH   7   8
ATOM      8  C   UNL A   1     -23.679   0.841  27.040  0.00  0.00    -0.013 C 
ATOM      9  H   UNL A   1     -23.304   1.132  26.051  0.00  0.00    +0.039 HD
ATOM     10  H   UNL A   1     -24.758   1.031  27.067  0.00  0.00    +0.039 HD
ATOM     11  H   UNL A   1     -23.253   1.517  27.790  0.00  0.00    +0.039 HD
ENDBRANCH   7   8
BRANCH   7  12
ATOM     12  C   UNL A   1     -22.714  -1.269  26.237  0.00  0.00    +0.003 C 
ATOM     13  H   UNL A   1     -21.681  -1.459  26.545  0.00  0.00    +0.043 HD
ATOM     14  H   UNL A   1     -23.199  -2.241  26.088  0.00  0.00    +0.043 HD
BRANCH  12  15
ATOM     15  C   UNL A   1     -22.658  -0.549  24.854  0.00  0.00    -0.015 C 
ATOM     16  H   UNL A   1     -23.377   0.281  24.873  0.00  0.00    +0.033 HD
ATOM     17  H   UNL A   1     -21.661  -0.117  24.705  0.00  0.00    +0.033 HD
BRANCH  15  18
ATOM     18  C   UNL A   1     -23.025  -1.362  23.613  0.00  0.00    -0.043 A 
ATOM     19  C   UNL A   1     -23.315  -2.736  23.635  0.00  0.00    -0.013 A 
ATOM     20  C   UNL A   1     -23.141  -0.695  22.385  0.00  0.00    -0.055 A 
ATOM     21  C   UNL A   1     -23.821  -3.417  22.502  0.00  0.00    +0.162 A 
ATOM     22  C   UNL A   1     -23.601  -1.367  21.248  0.00  0.00    -0.016 A 
ATOM     23  C   UNL A   1     -23.972  -2.717  21.296  0.00  0.00    +0.162 A 
ATOM     24  H   UNL A   1     -23.146  -3.283  24.555  0.00  0.00    +0.066 HD
ATOM     25  H   UNL A   1     -22.892   0.361  22.303  0.00  0.00    +0.062 HD
ATOM     26  H   UNL A   1     -23.691  -0.822  20.308  0.00  0.00    +0.066 HD
BRANCH  23  27
ATOM     27  O   UNL A   1     -24.446  -3.176  20.092  0.00  0.00    -0.491 OA
BRANCH  27  28
ATOM     28  C   UNL A   1     -23.516  -3.555  19.085  0.00  0.00    +0.079 C 
ATOM     29  H   UNL A   1     -23.205  -2.693  18.489  0.00  0.00    +0.066 HD
ATOM     30  H   UNL A   1     -22.663  -4.099  19.506  0.00  0.00    +0.066 HD
ATOM     31  H   UNL A   1     -24.028  -4.240  18.401  0.00  0.00    +0.066 HD
ENDBRANCH  27  28
ENDBRANCH  23  27
BRANCH  21  32
ATOM     32  O   UNL A   1     -24.177  -4.736  22.522  0.00  0.00    -0.491 OA
BRANCH  32  33
ATOM     33  C   UNL A   1     -23.197  -5.733  22.278  0.00  0.00    +0.079 C 
ATOM     34  H   UNL A   1     -22.238  -5.432  22.710  0.00  0.00    +0.066 HD
ATOM     35  H   UNL A   1     -23.501  -6.724  22.632  0.00  0.00    +0.066 HD
ATOM     36  H   UNL A   1     -23.072  -5.811  21.195  0.00  0.00    +0.066 HD
ENDBRANCH  32  33
ENDBRANCH  21  32
ENDBRANCH  15  18
ENDBRANCH  12  15
ENDBRANCH   7  12
ENDBRANCH   4   7
ENDBRANCH   1   4
BRANCH   1  37
ATOM     37  C   UNL A   1     -26.451  -3.049  27.204  0.00  0.00    -0.029 C 
ATOM     38  H   UNL A   1     -27.261  -2.702  26.547  0.00  0.00    +0.028 HD
ATOM     39  H   UNL A   1     -26.750  -2.706  28.203  0.00  0.00    +0.028 HD
BRANCH  37  40
ATOM     40  C   UNL A   1     -26.393  -4.670  27.182  0.00  0.00    +0.085 C 
BRANCH  40  41
ATOM     41  C   UNL A   1     -26.391  -5.053  28.691  0.00  0.00    -0.024 A 
ATOM     42  C   UNL A   1     -27.452  -5.830  29.205  0.00  0.00    -0.012 A 
ATOM     43  C   UNL A   1     -25.313  -4.816  29.557  0.00  0.00    -0.053 A 
ATOM     44  C   UNL A   1     -27.427  -6.404  30.487  0.00  0.00    +0.162 A 
ATOM     45  C   UNL A   1     -25.313  -5.311  30.864  0.00  0.00    -0.016 A 
ATOM     46  C   UNL A   1     -26.364  -6.099  31.343  0.00  0.00    +0.162 A 
ATOM     47  H   UNL A   1     -28.311  -6.031  28.567  0.00  0.00    +0.066 HD
ATOM     48  H   UNL A   1     -24.427  -4.274  29.240  0.00  0.00    +0.062 HD
ATOM     49  H   UNL A   1     -24.464  -5.104  31.514  0.00  0.00    +0.066 HD
BRANCH  44  50
ATOM     50  O   UNL A   1     -28.402  -7.270  30.908  0.00  0.00    -0.491 OA
BRANCH  50  51
ATOM     51  C   UNL A   1     -29.074  -7.972  29.864  0.00  0.00    +0.079 C 
ATOM     52  H   UNL A   1     -28.433  -8.797  29.543  0.00  0.00    +0.066 HD
ATOM     53  H   UNL A   1     -30.012  -8.406  30.228  0.00  0.00    +0.066 HD
ATOM     54  H   UNL A   1     -29.255  -7.331  28.991  0.00  0.00    +0.066 HD
ENDBRANCH  50  51
ENDBRANCH  44  50
BRANCH  46  55
ATOM     55  O   UNL A   1     -26.158  -6.569  32.614  0.00  0.00    -0.491 OA
BRANCH  55  56
ATOM     56  C   UNL A   1     -26.633  -5.751  33.676  0.00  0.00    +0.079 C 
ATOM     57  H   UNL A   1     -26.343  -6.139  34.659  0.00  0.00    +0.066 HD
ATOM     58  H   UNL A   1     -26.310  -4.715  33.540  0.00  0.00    +0.066 HD
ATOM     59  H   UNL A   1     -27.726  -5.755  33.627  0.00  0.00    +0.066 HD
ENDBRANCH  55  56
ENDBRANCH  46  55
ENDBRANCH  40  41
BRANCH  40  60
ATOM     60  C   UNL A   1     -27.625  -5.220  26.360  0.00  0.00    -0.024 C 
ATOM     61  H   UNL A   1     -28.427  -5.456  27.071  0.00  0.00    +0.031 HD
BRANCH  60  62
ATOM     62  C   UNL A   1     -27.366  -6.512  25.572  0.00  0.00    -0.061 C 
ATOM     63  H   UNL A   1     -26.327  -6.600  25.234  0.00  0.00    +0.023 HD
ATOM     64  H   UNL A   1     -27.553  -7.382  26.211  0.00  0.00    +0.023 HD
ATOM     65  H   UNL A   1     -28.012  -6.593  24.695  0.00  0.00    +0.023 HD
ENDBRANCH  60  62
BRANCH  60  66
ATOM     66  C   UNL A   1     -28.238  -4.197  25.386  0.00  0.00    -0.061 C 
ATOM     67  H   UNL A   1     -27.590  -4.024  24.522  0.00  0.00    +0.023 HD
ATOM     68  H   UNL A   1     -29.204  -4.559  25.012  0.00  0.00    +0.023 HD
ATOM     69  H   UNL A   1     -28.440  -3.238  25.869  0.00  0.00    +0.023 HD
ENDBRANCH  60  66
ENDBRANCH  40  60
BRANCH  40  71
ATOM     70  N   UNL A   1     -23.970  -5.431  26.049  0.00  0.00    -0.196 NA
ATOM     71  C   UNL A   1     -25.069  -5.086  26.563  0.00  0.00    +0.074 C 
ENDBRANCH  40  71
ENDBRANCH  37  40
ENDBRANCH   1  37
TORSDOF 21
ENDMDL
MODEL 9
REMARK VINA RESULT:    -4.738      1.562      2.949
REMARK INTER + INTRA:         -12.535
REMARK INTER:                  -9.586
REMARK INTRA:                  -2.949
REMARK UNBOUND:                -2.949
REMARK  Name = 2520
REMARK  21 active torsions:
REMARK  status: ('A' for Active; 'I' for Inactive)
REMARK    1  A    between atoms: O_1  and  C_19
REMARK    2  A    between atoms: O_1  and  C_28
REMARK    3  A    between atoms: O_2  and  C_23
REMARK    4  A    between atoms: O_2  and  C_31
REMARK    5  A    between atoms: O_3  and  C_27
REMARK    6  A    between atoms: O_3  and  C_32
REMARK    7  A    between atoms: O_4  and  C_30
REMARK    8  A    between atoms: O_4  and  C_33
REMARK    9  A    between atoms: N_5  and  C_12
REMARK   10  A    between atoms: N_5  and  C_18
REMARK   11  A    between atoms: N_5  and  C_20
REMARK   12  A    between atoms: C_7  and  C_8
REMARK   13  A    between atoms: C_7  and  C_9
REMARK   14  A    between atoms: C_7  and  C_11
REMARK   15  A    between atoms: C_7  and  C_15
REMARK   16  A    between atoms: C_8  and  C_13
REMARK   17  A    between atoms: C_8  and  C_14
REMARK   18  A    between atoms: C_9  and  C_10
REMARK   19  A    between atoms: C_10  and  C_12
REMARK   20  A    between atoms: C_18  and  C_22
REMARK   21  A    between atoms: C_22  and  C_24
REMARK                            x       y       z     vdW  Elec       q    Type
REMARK                         _______ _______ _______ _____ _____    ______ ____
ROOT
ATOM      1  C   UNL A   1     -23.472  -2.748  22.558  0.00  0.00    -0.038 C 
ATOM      2  H   UNL A   1     -24.457  -2.347  22.298  0.00  0.00    +0.028 HD
ATOM      3  H   UNL A   1     -22.739  -2.283  21.893  0.00  0.00    +0.028 HD
ENDROOT
BRANCH   1   4
ATOM      4  C   UNL A   1     -23.488  -4.269  22.262  0.00  0.00    -0.001 C 
ATOM      5  H   UNL A   1     -22.473  -4.634  22.056  0.00  0.00    +0.043 HD
ATOM      6  H   UNL A   1     -23.813  -4.767  23.185  0.00  0.00    +0.043 HD
BRANCH   4   7
ATOM      7  N   UNL A   1     -24.414  -4.647  21.152  0.00  0.00    -0.305 NA
BRANCH   7   8
ATOM      8  C   UNL A   1     -24.560  -3.525  20.218  0.00  0.00    -0.013 C 
ATOM      9  H   UNL A   1     -23.634  -2.950  20.103  0.00  0.00    +0.039 HD
ATOM     10  H   UNL A   1     -24.869  -3.879  19.227  0.00  0.00    +0.039 HD
ATOM     11  H   UNL A   1     -25.358  -2.847  20.538  0.00  0.00    +0.039 HD
ENDBRANCH   7   8
BRANCH   7  12
ATOM     12  C   UNL A   1     -25.730  -5.130  21.661  0.00  0.00    +0.003 C 
ATOM     13  H   UNL A   1     -26.380  -5.269  20.791  0.00  0.00    +0.043 HD
ATOM     14  H   UNL A   1     -25.593  -6.110  22.132  0.00  0.00    +0.043 HD
BRANCH  12  15
ATOM     15  C   UNL A   1     -26.498  -4.221  22.670  0.00  0.00    -0.015 C 
ATOM     16  H   UNL A   1     -25.821  -3.416  22.986  0.00  0.00    +0.033 HD
ATOM     17  H   UNL A   1     -27.353  -3.754  22.166  0.00  0.00    +0.033 HD
BRANCH  15  18
ATOM     18  C   UNL A   1     -26.989  -4.858  23.970  0.00  0.00    -0.043 A 
ATOM     19  C   UNL A   1     -28.275  -4.663  24.500  0.00  0.00    -0.013 A 
ATOM     20  C   UNL A   1     -26.135  -5.737  24.650  0.00  0.00    -0.055 A 
ATOM     21  C   UNL A   1     -28.753  -5.404  25.608  0.00  0.00    +0.162 A 
ATOM     22  C   UNL A   1     -26.582  -6.445  25.770  0.00  0.00    -0.016 A 
ATOM     23  C   UNL A   1     -27.894  -6.313  26.243  0.00  0.00    +0.162 A 
ATOM     24  H   UNL A   1     -28.916  -3.922  24.037  0.00  0.00    +0.066 HD
ATOM     25  H   UNL A   1     -25.115  -5.896  24.304  0.00  0.00    +0.062 HD
ATOM     26  H   UNL A   1     -25.900  -7.129  26.274  0.00  0.00    +0.066 HD
BRANCH  23  27
ATOM     27  O   UNL A   1     -28.152  -7.129  27.316  0.00  0.00    -0.491 OA
BRANCH  27  28
ATOM     28  C   UNL A   1     -27.304  -7.056  28.456  0.00  0.00    +0.079 C 
ATOM     29  H   UNL A   1     -27.114  -8.049  28.871  0.00  0.00    +0.066 HD
ATOM     30  H   UNL A   1     -26.379  -6.511  28.239  0.00  0.00    +0.066 HD
ATOM     31  H   UNL A   1     -27.836  -6.491  29.229  0.00  0.00    +0.066 HD
ENDBRANCH  27  28
ENDBRANCH  23  27
BRANCH  21  32
ATOM     32  O   UNL A   1     -30.024  -5.283  26.094  0.00  0.00    -0.491 OA
BRANCH  32  33
ATOM     33  C   UNL A   1     -30.760  -4.095  25.846  0.00  0.00    +0.079 C 
ATOM     34  H   UNL A   1     -31.330  -3.813  26.737  0.00  0.00    +0.066 HD
ATOM     35  H   UNL A   1     -30.131  -3.269  25.496  0.00  0.00    +0.066 HD
ATOM     36  H   UNL A   1     -31.470  -4.310  25.043  0.00  0.00    +0.066 HD
ENDBRANCH  32  33
ENDBRANCH  21  32
ENDBRANCH  15  18
ENDBRANCH  12  15
ENDBRANCH   7  12
ENDBRANCH   4   7
ENDBRANCH   1   4
BRANCH   1  37
ATOM     37  C   UNL A   1     -23.138  -2.373  24.041  0.00  0.00    -0.029 C 
ATOM     38  H   UNL A   1     -22.045  -2.291  24.126  0.00  0.00    +0.028 HD
ATOM     39  H   UNL A   1     -23.394  -3.220  24.690  0.00  0.00    +0.028 HD
BRANCH  37  40
ATOM     40  C   UNL A   1     -23.829  -1.022  24.613  0.00  0.00    +0.085 C 
BRANCH  40  41
ATOM     41  C   UNL A   1     -25.081  -1.548  25.372  0.00  0.00    -0.024 A 
ATOM     42  C   UNL A   1     -24.940  -2.632  26.266  0.00  0.00    -0.012 A 
ATOM     43  C   UNL A   1     -26.332  -0.912  25.354  0.00  0.00    -0.053 A 
ATOM     44  C   UNL A   1     -25.956  -3.031  27.150  0.00  0.00    +0.162 A 
ATOM     45  C   UNL A   1     -27.379  -1.352  26.170  0.00  0.00    -0.016 A 
ATOM     46  C   UNL A   1     -27.207  -2.411  27.066  0.00  0.00    +0.162 A 
ATOM     47  H   UNL A   1     -23.987  -3.158  26.304  0.00  0.00    +0.066 HD
ATOM     48  H   UNL A   1     -26.525  -0.037  24.740  0.00  0.00    +0.062 HD
ATOM     49  H   UNL A   1     -28.339  -0.840  26.128  0.00  0.00    +0.066 HD
BRANCH  44  50
ATOM     50  O   UNL A   1     -25.744  -3.990  28.105  0.00  0.00    -0.491 OA
BRANCH  50  51
ATOM     51  C   UNL A   1     -25.732  -3.511  29.448  0.00  0.00    +0.079 C 
ATOM     52  H   UNL A   1     -24.818  -2.930  29.592  0.00  0.00    +0.066 HD
ATOM     53  H   UNL A   1     -26.580  -2.842  29.631  0.00  0.00    +0.066 HD
ATOM     54  H   UNL A   1     -25.722  -4.334  30.176  0.00  0.00    +0.066 HD
ENDBRANCH  50  51
ENDBRANCH  44  50
BRANCH  46  55
ATOM     55  O   UNL A   1     -28.308  -2.651  27.845  0.00  0.00    -0.491 OA
BRANCH  55  56
ATOM     56  C   UNL A   1     -29.126  -1.529  28.149  0.00  0.00    +0.079 C 
ATOM     57  H   UNL A   1     -28.816  -0.630  27.603  0.00  0.00    +0.066 HD
ATOM     58  H   UNL A   1     -30.181  -1.760  27.978  0.00  0.00    +0.066 HD
ATOM     59  H   UNL A   1     -29.013  -1.322  29.218  0.00  0.00    +0.066 HD
ENDBRANCH  55  56
ENDBRANCH  46  55
ENDBRANCH  40  41
BRANCH  40  60
ATOM     60  C   UNL A   1     -22.785  -0.249  25.512  0.00  0.00    -0.024 C 
ATOM     61  H   UNL A   1     -22.707   0.778  25.132  0.00  0.00    +0.031 HD
BRANCH  60  62
ATOM     62  C   UNL A   1     -21.357  -0.815  25.496  0.00  0.00    -0.061 C 
ATOM     63  H   UNL A   1     -20.607  -0.062  25.227  0.00  0.00    +0.023 HD
ATOM     64  H   UNL A   1     -21.086  -1.171  26.496  0.00  0.00    +0.023 HD
ATOM     65  H   UNL A   1     -21.257  -1.652  24.802  0.00  0.00    +0.023 HD
ENDBRANCH  60  62
BRANCH  60  66
ATOM     66  C   UNL A   1     -23.210  -0.102  26.985  0.00  0.00    -0.061 C 
ATOM     67  H   UNL A   1     -23.079   0.924  27.342  0.00  0.00    +0.023 HD
ATOM     68  H   UNL A   1     -24.268  -0.365  27.104  0.00  0.00    +0.023 HD
ATOM     69  H   UNL A   1     -22.654  -0.774  27.643  0.00  0.00    +0.023 HD
ENDBRANCH  60  66
ENDBRANCH  40  60
BRANCH  40  71
ATOM     70  N   UNL A   1     -24.658   0.507  22.442  0.00  0.00    -0.196 NA
ATOM     71  C   UNL A   1     -24.282  -0.186  23.427  0.00  0.00    +0.074 C 
ENDBRANCH  40  71
ENDBRANCH  37  40
ENDBRANCH   1  37
TORSDOF 21
ENDMDL
