MODEL 1
REMARK VINA RESULT:    -6.785      0.000      0.000
REMARK INTER + INTRA:         -15.627
REMARK INTER:                 -13.110
REMARK INTRA:                  -2.517
REMARK UNBOUND:                -1.901
REMARK  Name = 2520
REMARK  21 active torsions:
REMARK  status: ('A' for Active; 'I' for Inactive)
REMARK    1  A    between atoms: O_1  and  C_19
REMARK    2  A    between atoms: O_1  and  C_28
REMARK    3  A    between atoms: O_2  and  C_23
REMARK    4  A    between atoms: O_2  and  C_31
REMARK    5  A    between atoms: O_3  and  C_27
REMARK    6  A    between atoms: O_3  and  C_32
REMARK    7  A    between atoms: O_4  and  C_30
REMARK    8  A    between atoms: O_4  and  C_33
REMARK    9  A    between atoms: N_5  and  C_12
REMARK   10  A    between atoms: N_5  and  C_18
REMARK   11  A    between atoms: N_5  and  C_20
REMARK   12  A    between atoms: C_7  and  C_8
REMARK   13  A    between atoms: C_7  and  C_9
REMARK   14  A    between atoms: C_7  and  C_11
REMARK   15  A    between atoms: C_7  and  C_15
REMARK   16  A    between atoms: C_8  and  C_13
REMARK   17  A    between atoms: C_8  and  C_14
REMARK   18  A    between atoms: C_9  and  C_10
REMARK   19  A    between atoms: C_10  and  C_12
REMARK   20  A    between atoms: C_18  and  C_22
REMARK   21  A    between atoms: C_22  and  C_24
REMARK                            x       y       z     vdW  Elec       q    Type
REMARK                         _______ _______ _______ _____ _____    ______ ____
ROOT
ATOM      1  C   UNL A   1      -5.721  -1.925   3.350  0.00  0.00    -0.038 C 
ATOM      2  H   UNL A   1      -5.292  -1.208   4.055  0.00  0.00    +0.028 HD
ATOM      3  H   UNL A   1      -6.050  -2.797   3.922  0.00  0.00    +0.028 HD
ENDROOT
BRANCH   1   4
ATOM      4  C   UNL A   1      -4.589  -2.382   2.393  0.00  0.00    -0.001 C 
ATOM      5  H   UNL A   1      -3.719  -1.717   2.478  0.00  0.00    +0.043 HD
ATOM      6  H   UNL A   1      -4.259  -3.368   2.744  0.00  0.00    +0.043 HD
BRANCH   4   7
ATOM      7  N   UNL A   1      -5.027  -2.492   0.969  0.00  0.00    -0.305 NA
BRANCH   7   8
ATOM      8  C   UNL A   1      -5.088  -3.903   0.571  0.00  0.00    -0.013 C 
ATOM      9  H   UNL A   1      -5.903  -4.106  -0.133  0.00  0.00    +0.039 HD
ATOM     10  H   UNL A   1      -4.147  -4.219   0.108  0.00  0.00    +0.039 HD
ATOM     11  H   UNL A   1      -5.207  -4.553   1.444  0.00  0.00    +0.039 HD
ENDBRANCH   7   8
BRANCH   7  12
ATOM     12  C   UNL A   1      -4.165  -1.686   0.055  0.00  0.00    +0.003 C 
ATOM     13  H   UNL A   1      -3.425  -2.369  -0.375  0.00  0.00    +0.043 HD
ATOM     14  H   UNL A   1      -4.779  -1.301  -0.767  0.00  0.00    +0.043 HD
BRANCH  12  15
ATOM     15  C   UNL A   1      -3.381  -0.483   0.666  0.00  0.00    -0.015 C 
ATOM     16  H   UNL A   1      -3.278  -0.658   1.746  0.00  0.00    +0.033 HD
ATOM     17  H   UNL A   1      -2.371  -0.450   0.241  0.00  0.00    +0.033 HD
BRANCH  15  18
ATOM     18  C   UNL A   1      -4.005   0.906   0.547  0.00  0.00    -0.043 A 
ATOM     19  C   UNL A   1      -4.735   1.527   1.575  0.00  0.00    -0.013 A 
ATOM     20  C   UNL A   1      -3.793   1.638  -0.629  0.00  0.00    -0.055 A 
ATOM     21  C   UNL A   1      -5.146   2.879   1.494  0.00  0.00    +0.162 A 
ATOM     22  C   UNL A   1      -4.231   2.962  -0.737  0.00  0.00    -0.016 A 
ATOM     23  C   UNL A   1      -4.881   3.605   0.324  0.00  0.00    +0.162 A 
ATOM     24  H   UNL A   1      -4.981   0.945   2.455  0.00  0.00    +0.066 HD
ATOM     25  H   UNL A   1      -3.268   1.192  -1.472  0.00  0.00    +0.062 HD
ATOM     26  H   UNL A   1      -4.045   3.511  -1.660  0.00  0.00    +0.066 HD
BRANCH  23  27
ATOM     27  O   UNL A   1      -5.182   4.915   0.042  0.00  0.00    -0.491 OA
BRANCH  27  28
ATOM     28  C   UNL A   1      -4.128   5.869  -0.004  0.00  0.00    +0.079 C 
ATOM     29  H   UNL A   1      -4.210   6.589   0.814  0.00  0.00    +0.066 HD
ATOM     30  H   UNL A   1      -3.145   5.385  -0.036  0.00  0.00    +0.066 HD
ATOM     31  H   UNL A   1      -4.236   6.438  -0.934  0.00  0.00    +0.066 HD
ENDBRANCH  27  28
ENDBRANCH  23  27
BRANCH  21  32
ATOM     32  O   UNL A   1      -5.792   3.524   2.512  0.00  0.00    -0.491 OA
BRANCH  32  33
ATOM     33  C   UNL A   1      -5.074   4.423   3.342  0.00  0.00    +0.079 C 
ATOM     34  H   UNL A   1      -4.338   4.976   2.750  0.00  0.00    +0.066 HD
ATOM     35  H   UNL A   1      -5.728   5.102   3.900  0.00  0.00    +0.066 HD
ATOM     36  H   UNL A   1      -4.535   3.827   4.083  0.00  0.00    +0.066 HD
ENDBRANCH  32  33
ENDBRANCH  21  32
ENDBRANCH  15  18
ENDBRANCH  12  15
ENDBRANCH   7  12
ENDBRANCH   4   7
ENDBRANCH   1   4
BRANCH   1  37
ATOM     37  C   UNL A   1      -6.955  -1.275   2.639  0.00  0.00    -0.029 C 
ATOM     38  H   UNL A   1      -6.969  -1.635   1.600  0.00  0.00    +0.028 HD
ATOM     39  H   UNL A   1      -6.787  -0.195   2.547  0.00  0.00    +0.028 HD
BRANCH  37  40
ATOM     40  C   UNL A   1      -8.401  -1.544   3.323  0.00  0.00    +0.085 C 
BRANCH  40  41
ATOM     41  C   UNL A   1      -9.169  -0.211   3.083  0.00  0.00    -0.024 A 
ATOM     42  C   UNL A   1     -10.547  -0.146   3.383  0.00  0.00    -0.012 A 
ATOM     43  C   UNL A   1      -8.547   0.998   2.735  0.00  0.00    -0.053 A 
ATOM     44  C   UNL A   1     -11.268   1.059   3.407  0.00  0.00    +0.162 A 
ATOM     45  C   UNL A   1      -9.272   2.192   2.674  0.00  0.00    -0.016 A 
ATOM     46  C   UNL A   1     -10.630   2.236   3.000  0.00  0.00    +0.162 A 
ATOM     47  H   UNL A   1     -11.068  -1.065   3.651  0.00  0.00    +0.066 HD
ATOM     48  H   UNL A   1      -7.481   1.062   2.537  0.00  0.00    +0.062 HD
ATOM     49  H   UNL A   1      -8.761   3.112   2.395  0.00  0.00    +0.066 HD
BRANCH  44  50
ATOM     50  O   UNL A   1     -12.566   1.113   3.841  0.00  0.00    -0.491 OA
BRANCH  50  51
ATOM     51  C   UNL A   1     -13.525   0.559   2.941  0.00  0.00    +0.079 C 
ATOM     52  H   UNL A   1     -14.262   1.332   2.713  0.00  0.00    +0.066 HD
ATOM     53  H   UNL A   1     -13.050   0.268   1.997  0.00  0.00    +0.066 HD
ATOM     54  H   UNL A   1     -14.059  -0.291   3.386  0.00  0.00    +0.066 HD
ENDBRANCH  50  51
ENDBRANCH  44  50
BRANCH  46  55
ATOM     55  O   UNL A   1     -11.159   3.499   2.969  0.00  0.00    -0.491 OA
BRANCH  55  56
ATOM     56  C   UNL A   1     -10.818   4.355   4.052  0.00  0.00    +0.079 C 
ATOM     57  H   UNL A   1     -10.496   3.796   4.937  0.00  0.00    +0.066 HD
ATOM     58  H   UNL A   1     -10.068   5.089   3.744  0.00  0.00    +0.066 HD
ATOM     59  H   UNL A   1     -11.719   4.914   4.323  0.00  0.00    +0.066 HD
ENDBRANCH  55  56
ENDBRANCH  46  55
ENDBRANCH  40  41
BRANCH  40  60
ATOM     60  C   UNL A   1      -9.059  -2.817   2.659  0.00  0.00    -0.024 C 
ATOM     61  H   UNL A   1     -10.134  -2.795   2.879  0.00  0.00    +0.031 HD
BRANCH  60  62
ATOM     62  C   UNL A   1      -8.549  -4.169   3.181  0.00  0.00    -0.061 C 
ATOM     63  H   UNL A   1      -7.501  -4.130   3.502  0.00  0.00    +0.023 HD
ATOM     64  H   UNL A   1      -9.126  -4.469   4.063  0.00  0.00    +0.023 HD
ATOM     65  H   UNL A   1      -8.642  -4.958   2.432  0.00  0.00    +0.023 HD
ENDBRANCH  60  62
BRANCH  60  66
ATOM     66  C   UNL A   1      -8.962  -2.846   1.122  0.00  0.00    -0.061 C 
ATOM     67  H   UNL A   1      -9.950  -2.796   0.656  0.00  0.00    +0.023 HD
ATOM     68  H   UNL A   1      -8.378  -1.991   0.762  0.00  0.00    +0.023 HD
ATOM     69  H   UNL A   1      -8.449  -3.740   0.759  0.00  0.00    +0.023 HD
ENDBRANCH  60  66
ENDBRANCH  40  60
BRANCH  40  71
ATOM     70  N   UNL A   1      -8.011  -1.886   6.056  0.00  0.00    -0.196 NA
ATOM     71  C   UNL A   1      -8.188  -1.731   4.816  0.00  0.00    +0.074 C 
ENDBRANCH  40  71
ENDBRANCH  37  40
ENDBRANCH   1  37
TORSDOF 21
ENDMDL
MODEL 2
REMARK VINA RESULT:    -6.529      2.426      3.415
REMARK INTER + INTRA:         -15.109
REMARK INTER:                 -13.443
REMARK INTRA:                  -1.666
REMARK UNBOUND:                -1.901
REMARK  Name = 2520
REMARK  21 active torsions:
REMARK  status: ('A' for Active; 'I' for Inactive)
REMARK    1  A    between atoms: O_1  and  C_19
REMARK    2  A    between atoms: O_1  and  C_28
REMARK    3  A    between atoms: O_2  and  C_23
REMARK    4  A    between atoms: O_2  and  C_31
REMARK    5  A    between atoms: O_3  and  C_27
REMARK    6  A    between atoms: O_3  and  C_32
REMARK    7  A    between atoms: O_4  and  C_30
REMARK    8  A    between atoms: O_4  and  C_33
REMARK    9  A    between atoms: N_5  and  C_12
REMARK   10  A    between atoms: N_5  and  C_18
REMARK   11  A    between atoms: N_5  and  C_20
REMARK   12  A    between atoms: C_7  and  C_8
REMARK   13  A    between atoms: C_7  and  C_9
REMARK   14  A    between atoms: C_7  and  C_11
REMARK   15  A    between atoms: C_7  and  C_15
REMARK   16  A    between atoms: C_8  and  C_13
REMARK   17  A    between atoms: C_8  and  C_14
REMARK   18  A    between atoms: C_9  and  C_10
REMARK   19  A    between atoms: C_10  and  C_12
REMARK   20  A    between atoms: C_18  and  C_22
REMARK   21  A    between atoms: C_22  and  C_24
REMARK                            x       y       z     vdW  Elec       q    Type
REMARK                         _______ _______ _______ _____ _____    ______ ____
ROOT
ATOM      1  C   UNL A   1      -6.315  -3.161   4.193  0.00  0.00    -0.038 C 
ATOM      2  H   UNL A   1      -5.967  -3.797   5.012  0.00  0.00    +0.028 HD
ATOM      3  H   UNL A   1      -6.464  -3.798   3.317  0.00  0.00    +0.028 HD
ENDROOT
BRANCH   1   4
ATOM      4  C   UNL A   1      -5.183  -2.154   3.862  0.00  0.00    -0.001 C 
ATOM      5  H   UNL A   1      -5.231  -1.284   4.531  0.00  0.00    +0.043 HD
ATOM      6  H   UNL A   1      -4.235  -2.661   4.084  0.00  0.00    +0.043 HD
BRANCH   4   7
ATOM      7  N   UNL A   1      -5.180  -1.715   2.435  0.00  0.00    -0.305 NA
BRANCH   7   8
ATOM      8  C   UNL A   1      -4.879  -2.855   1.561  0.00  0.00    -0.013 C 
ATOM      9  H   UNL A   1      -5.744  -3.167   0.964  0.00  0.00    +0.039 HD
ATOM     10  H   UNL A   1      -4.057  -2.616   0.876  0.00  0.00    +0.039 HD
ATOM     11  H   UNL A   1      -4.524  -3.714   2.141  0.00  0.00    +0.039 HD
ENDBRANCH   7   8
BRANCH   7  12
ATOM     12  C   UNL A   1      -4.253  -0.569   2.203  0.00  0.00    +0.003 C 
ATOM     13  H   UNL A   1      -4.278   0.052   3.104  0.00  0.00    +0.043 HD
ATOM     14  H   UNL A   1      -3.232  -0.952   2.093  0.00  0.00    +0.043 HD
BRANCH  12  15
ATOM     15  C   UNL A   1      -4.542   0.367   0.989  0.00  0.00    -0.015 C 
ATOM     16  H   UNL A   1      -5.548   0.136   0.613  0.00  0.00    +0.033 HD
ATOM     17  H   UNL A   1      -4.549   1.411   1.324  0.00  0.00    +0.033 HD
BRANCH  15  18
ATOM     18  C   UNL A   1      -3.629   0.253  -0.230  0.00  0.00    -0.043 A 
ATOM     19  C   UNL A   1      -4.033   0.554  -1.542  0.00  0.00    -0.013 A 
ATOM     20  C   UNL A   1      -2.290  -0.113  -0.034  0.00  0.00    -0.055 A 
ATOM     21  C   UNL A   1      -3.115   0.606  -2.618  0.00  0.00    +0.162 A 
ATOM     22  C   UNL A   1      -1.382  -0.105  -1.097  0.00  0.00    -0.016 A 
ATOM     23  C   UNL A   1      -1.772   0.280  -2.387  0.00  0.00    +0.162 A 
ATOM     24  H   UNL A   1      -5.082   0.754  -1.724  0.00  0.00    +0.066 HD
ATOM     25  H   UNL A   1      -1.933  -0.393   0.956  0.00  0.00    +0.062 HD
ATOM     26  H   UNL A   1      -0.346  -0.386  -0.915  0.00  0.00    +0.066 HD
BRANCH  23  27
ATOM     27  O   UNL A   1      -0.726   0.273  -3.277  0.00  0.00    -0.491 OA
BRANCH  27  28
ATOM     28  C   UNL A   1       0.447   1.016  -2.966  0.00  0.00    +0.079 C 
ATOM     29  H   UNL A   1       0.375   2.042  -3.336  0.00  0.00    +0.066 HD
ATOM     30  H   UNL A   1       0.682   0.974  -1.896  0.00  0.00    +0.066 HD
ATOM     31  H   UNL A   1       1.285   0.551  -3.497  0.00  0.00    +0.066 HD
ENDBRANCH  27  28
ENDBRANCH  23  27
BRANCH  21  32
ATOM     32  O   UNL A   1      -3.474   0.967  -3.887  0.00  0.00    -0.491 OA
BRANCH  32  33
ATOM     33  C   UNL A   1      -4.411   2.015  -4.081  0.00  0.00    +0.079 C 
ATOM     34  H   UNL A   1      -5.412   1.685  -3.785  0.00  0.00    +0.066 HD
ATOM     35  H   UNL A   1      -4.128   2.940  -3.567  0.00  0.00    +0.066 HD
ATOM     36  H   UNL A   1      -4.431   2.243  -5.150  0.00  0.00    +0.066 HD
ENDBRANCH  32  33
ENDBRANCH  21  32
ENDBRANCH  15  18
ENDBRANCH  12  15
ENDBRANCH   7  12
ENDBRANCH   4   7
ENDBRANCH   1   4
BRANCH   1  37
ATOM     37  C   UNL A   1      -7.678  -2.503   4.594  0.00  0.00    -0.029 C 
ATOM     38  H   UNL A   1      -7.492  -1.436   4.779  0.00  0.00    +0.028 HD
ATOM     39  H   UNL A   1      -7.991  -2.894   5.570  0.00  0.00    +0.028 HD
BRANCH  37  40
ATOM     40  C   UNL A   1      -8.893  -2.664   3.531  0.00  0.00    +0.085 C 
BRANCH  40  41
ATOM     41  C   UNL A   1      -9.161  -1.204   3.063  0.00  0.00    -0.024 A 
ATOM     42  C   UNL A   1     -10.445  -0.857   2.591  0.00  0.00    -0.012 A 
ATOM     43  C   UNL A   1      -8.249  -0.150   3.230  0.00  0.00    -0.053 A 
ATOM     44  C   UNL A   1     -10.840   0.471   2.356  0.00  0.00    +0.162 A 
ATOM     45  C   UNL A   1      -8.603   1.167   2.920  0.00  0.00    -0.016 A 
ATOM     46  C   UNL A   1      -9.890   1.490   2.478  0.00  0.00    +0.162 A 
ATOM     47  H   UNL A   1     -11.179  -1.648   2.441  0.00  0.00    +0.066 HD
ATOM     48  H   UNL A   1      -7.254  -0.306   3.636  0.00  0.00    +0.062 HD
ATOM     49  H   UNL A   1      -7.871   1.962   3.055  0.00  0.00    +0.066 HD
BRANCH  44  50
ATOM     50  O   UNL A   1     -12.133   0.792   2.037  0.00  0.00    -0.491 OA
BRANCH  50  51
ATOM     51  C   UNL A   1     -13.062   0.690   3.114  0.00  0.00    +0.079 C 
ATOM     52  H   UNL A   1     -12.615   1.161   3.993  0.00  0.00    +0.066 HD
ATOM     53  H   UNL A   1     -13.987   1.231   2.884  0.00  0.00    +0.066 HD
ATOM     54  H   UNL A   1     -13.278  -0.356   3.370  0.00  0.00    +0.066 HD
ENDBRANCH  50  51
ENDBRANCH  44  50
BRANCH  46  55
ATOM     55  O   UNL A   1     -10.086   2.835   2.306  0.00  0.00    -0.491 OA
BRANCH  55  56
ATOM     56  C   UNL A   1     -10.676   3.533   3.395  0.00  0.00    +0.079 C 
ATOM     57  H   UNL A   1     -11.545   4.124   3.086  0.00  0.00    +0.066 HD
ATOM     58  H   UNL A   1     -10.924   2.845   4.207  0.00  0.00    +0.066 HD
ATOM     59  H   UNL A   1      -9.924   4.228   3.783  0.00  0.00    +0.066 HD
ENDBRANCH  55  56
ENDBRANCH  46  55
ENDBRANCH  40  41
BRANCH  40  60
ATOM     60  C   UNL A   1      -8.448  -3.657   2.385  0.00  0.00    -0.024 C 
ATOM     61  H   UNL A   1      -7.352  -3.716   2.396  0.00  0.00    +0.031 HD
BRANCH  60  62
ATOM     62  C   UNL A   1      -8.833  -3.231   0.960  0.00  0.00    -0.061 C 
ATOM     63  H   UNL A   1      -8.891  -4.079   0.267  0.00  0.00    +0.023 HD
ATOM     64  H   UNL A   1      -9.829  -2.773   0.965  0.00  0.00    +0.023 HD
ATOM     65  H   UNL A   1      -8.130  -2.506   0.547  0.00  0.00    +0.023 HD
ENDBRANCH  60  62
BRANCH  60  66
ATOM     66  C   UNL A   1      -8.932  -5.105   2.584  0.00  0.00    -0.061 C 
ATOM     67  H   UNL A   1      -9.515  -5.456   1.729  0.00  0.00    +0.023 HD
ATOM     68  H   UNL A   1      -8.074  -5.779   2.703  0.00  0.00    +0.023 HD
ATOM     69  H   UNL A   1      -9.535  -5.218   3.489  0.00  0.00    +0.023 HD
ENDBRANCH  60  66
ENDBRANCH  40  60
BRANCH  40  71
ATOM     70  N   UNL A   1     -11.123  -3.601   4.905  0.00  0.00    -0.196 NA
ATOM     71  C   UNL A   1     -10.111  -3.176   4.281  0.00  0.00    +0.074 C 
ENDBRANCH  40  71
ENDBRANCH  37  40
ENDBRANCH   1  37
TORSDOF 21
ENDMDL
MODEL 3
REMARK VINA RESULT:    -6.430      1.830      7.340
REMARK INTER + INTRA:         -14.909
REMARK INTER:                 -13.456
REMARK INTRA:                  -1.454
REMARK UNBOUND:                -1.901
REMARK  Name = 2520
REMARK  21 active torsions:
REMARK  status: ('A' for Active; 'I' for Inactive)
REMARK    1  A    between atoms: O_1  and  C_19
REMARK    2  A    between atoms: O_1  and  C_28
REMARK    3  A    between atoms: O_2  and  C_23
REMARK    4  A    between atoms: O_2  and  C_31
REMARK    5  A    between atoms: O_3  and  C_27
REMARK    6  A    between atoms: O_3  and  C_32
REMARK    7  A    between atoms: O_4  and  C_30
REMARK    8  A    between atoms: O_4  and  C_33
REMARK    9  A    between atoms: N_5  and  C_12
REMARK   10  A    between atoms: N_5  and  C_18
REMARK   11  A    between atoms: N_5  and  C_20
REMARK   12  A    between atoms: C_7  and  C_8
REMARK   13  A    between atoms: C_7  and  C_9
REMARK   14  A    between atoms: C_7  and  C_11
REMARK   15  A    between atoms: C_7  and  C_15
REMARK   16  A    between atoms: C_8  and  C_13
REMARK   17  A    between atoms: C_8  and  C_14
REMARK   18  A    between atoms: C_9  and  C_10
REMARK   19  A    between atoms: C_10  and  C_12
REMARK   20  A    between atoms: C_18  and  C_22
REMARK   21  A    between atoms: C_22  and  C_24
REMARK                            x       y       z     vdW  Elec       q    Type
REMARK                         _______ _______ _______ _____ _____    ______ ____
ROOT
ATOM      1  C   UNL A   1      -3.757  -2.300   0.187  0.00  0.00    -0.038 C 
ATOM      2  H   UNL A   1      -2.983  -2.829  -0.378  0.00  0.00    +0.028 HD
ATOM      3  H   UNL A   1      -3.269  -1.792   1.023  0.00  0.00    +0.028 HD
ENDROOT
BRANCH   1   4
ATOM      4  C   UNL A   1      -4.723  -3.361   0.773  0.00  0.00    -0.001 C 
ATOM      5  H   UNL A   1      -5.089  -4.031  -0.017  0.00  0.00    +0.043 HD
ATOM      6  H   UNL A   1      -4.131  -3.985   1.455  0.00  0.00    +0.043 HD
BRANCH   4   7
ATOM      7  N   UNL A   1      -5.869  -2.767   1.525  0.00  0.00    -0.305 NA
BRANCH   7   8
ATOM      8  C   UNL A   1      -5.440  -2.392   2.877  0.00  0.00    -0.013 C 
ATOM      9  H   UNL A   1      -4.428  -2.743   3.110  0.00  0.00    +0.039 HD
ATOM     10  H   UNL A   1      -5.464  -1.303   3.007  0.00  0.00    +0.039 HD
ATOM     11  H   UNL A   1      -6.131  -2.782   3.632  0.00  0.00    +0.039 HD
ENDBRANCH   7   8
BRANCH   7  12
ATOM     12  C   UNL A   1      -7.056  -3.670   1.542  0.00  0.00    +0.003 C 
ATOM     13  H   UNL A   1      -6.865  -4.467   0.816  0.00  0.00    +0.043 HD
ATOM     14  H   UNL A   1      -7.137  -4.136   2.532  0.00  0.00    +0.043 HD
BRANCH  12  15
ATOM     15  C   UNL A   1      -8.446  -3.052   1.194  0.00  0.00    -0.015 C 
ATOM     16  H   UNL A   1      -8.300  -2.318   0.390  0.00  0.00    +0.033 HD
ATOM     17  H   UNL A   1      -9.109  -3.836   0.807  0.00  0.00    +0.033 HD
BRANCH  15  18
ATOM     18  C   UNL A   1      -9.183  -2.292   2.295  0.00  0.00    -0.043 A 
ATOM     19  C   UNL A   1      -9.843  -1.068   2.095  0.00  0.00    -0.013 A 
ATOM     20  C   UNL A   1      -9.262  -2.869   3.571  0.00  0.00    -0.055 A 
ATOM     21  C   UNL A   1     -10.661  -0.483   3.091  0.00  0.00    +0.162 A 
ATOM     22  C   UNL A   1     -10.033  -2.278   4.577  0.00  0.00    -0.016 A 
ATOM     23  C   UNL A   1     -10.761  -1.103   4.344  0.00  0.00    +0.162 A 
ATOM     24  H   UNL A   1      -9.720  -0.568   1.142  0.00  0.00    +0.066 HD
ATOM     25  H   UNL A   1      -8.738  -3.797   3.792  0.00  0.00    +0.062 HD
ATOM     26  H   UNL A   1     -10.085  -2.752   5.556  0.00  0.00    +0.066 HD
BRANCH  23  27
ATOM     27  O   UNL A   1     -11.495  -0.714   5.437  0.00  0.00    -0.491 OA
BRANCH  27  28
ATOM     28  C   UNL A   1     -11.132  -1.207   6.721  0.00  0.00    +0.079 C 
ATOM     29  H   UNL A   1     -12.004  -1.584   7.262  0.00  0.00    +0.066 HD
ATOM     30  H   UNL A   1     -10.328  -1.950   6.658  0.00  0.00    +0.066 HD
ATOM     31  H   UNL A   1     -10.744  -0.364   7.303  0.00  0.00    +0.066 HD
ENDBRANCH  27  28
ENDBRANCH  23  27
BRANCH  21  32
ATOM     32  O   UNL A   1     -11.369   0.669   2.892  0.00  0.00    -0.491 OA
BRANCH  32  33
ATOM     33  C   UNL A   1     -12.405   0.697   1.922  0.00  0.00    +0.079 C 
ATOM     34  H   UNL A   1     -13.366   0.903   2.403  0.00  0.00    +0.066 HD
ATOM     35  H   UNL A   1     -12.207   1.402   1.107  0.00  0.00    +0.066 HD
ATOM     36  H   UNL A   1     -12.459  -0.297   1.470  0.00  0.00    +0.066 HD
ENDBRANCH  32  33
ENDBRANCH  21  32
ENDBRANCH  15  18
ENDBRANCH  12  15
ENDBRANCH   7  12
ENDBRANCH   4   7
ENDBRANCH   1   4
BRANCH   1  37
ATOM     37  C   UNL A   1      -4.437  -1.237  -0.740  0.00  0.00    -0.029 C 
ATOM     38  H   UNL A   1      -5.369  -0.916  -0.252  0.00  0.00    +0.028 HD
ATOM     39  H   UNL A   1      -4.774  -1.729  -1.662  0.00  0.00    +0.028 HD
BRANCH  37  40
ATOM     40  C   UNL A   1      -3.545   0.065  -1.115  0.00  0.00    +0.085 C 
BRANCH  40  41
ATOM     41  C   UNL A   1      -3.985   1.121  -0.059  0.00  0.00    -0.024 A 
ATOM     42  C   UNL A   1      -4.143   2.467  -0.456  0.00  0.00    -0.012 A 
ATOM     43  C   UNL A   1      -4.399   0.800   1.243  0.00  0.00    -0.053 A 
ATOM     44  C   UNL A   1      -4.741   3.439   0.363  0.00  0.00    +0.162 A 
ATOM     45  C   UNL A   1      -4.919   1.777   2.098  0.00  0.00    -0.016 A 
ATOM     46  C   UNL A   1      -5.089   3.098   1.674  0.00  0.00    +0.162 A 
ATOM     47  H   UNL A   1      -3.827   2.758  -1.457  0.00  0.00    +0.066 HD
ATOM     48  H   UNL A   1      -4.367  -0.217   1.625  0.00  0.00    +0.062 HD
ATOM     49  H   UNL A   1      -5.225   1.496   3.105  0.00  0.00    +0.066 HD
BRANCH  44  50
ATOM     50  O   UNL A   1      -5.012   4.701  -0.099  0.00  0.00    -0.491 OA
BRANCH  50  51
ATOM     51  C   UNL A   1      -3.918   5.614  -0.032  0.00  0.00    +0.079 C 
ATOM     52  H   UNL A   1      -3.037   5.117  -0.444  0.00  0.00    +0.066 HD
ATOM     53  H   UNL A   1      -4.114   6.501  -0.644  0.00  0.00    +0.066 HD
ATOM     54  H   UNL A   1      -3.687   5.899   1.003  0.00  0.00    +0.066 HD
ENDBRANCH  50  51
ENDBRANCH  44  50
BRANCH  46  55
ATOM     55  O   UNL A   1      -5.690   3.898   2.609  0.00  0.00    -0.491 OA
BRANCH  55  56
ATOM     56  C   UNL A   1      -4.828   4.722   3.384  0.00  0.00    +0.079 C 
ATOM     57  H   UNL A   1      -4.766   5.743   2.991  0.00  0.00    +0.066 HD
ATOM     58  H   UNL A   1      -5.126   4.713   4.436  0.00  0.00    +0.066 HD
ATOM     59  H   UNL A   1      -3.825   4.287   3.332  0.00  0.00    +0.066 HD
ENDBRANCH  55  56
ENDBRANCH  46  55
ENDBRANCH  40  41
BRANCH  40  60
ATOM     60  C   UNL A   1      -2.016  -0.326  -1.065  0.00  0.00    -0.024 C 
ATOM     61  H   UNL A   1      -1.825  -0.824  -0.105  0.00  0.00    +0.031 HD
BRANCH  60  62
ATOM     62  C   UNL A   1      -1.033   0.853  -1.131  0.00  0.00    -0.061 C 
ATOM     63  H   UNL A   1      -0.284   0.824  -0.332  0.00  0.00    +0.023 HD
ATOM     64  H   UNL A   1      -0.475   0.821  -2.073  0.00  0.00    +0.023 HD
ATOM     65  H   UNL A   1      -1.546   1.816  -1.076  0.00  0.00    +0.023 HD
ENDBRANCH  60  62
BRANCH  60  66
ATOM     66  C   UNL A   1      -1.591  -1.345  -2.138  0.00  0.00    -0.061 C 
ATOM     67  H   UNL A   1      -2.395  -2.050  -2.365  0.00  0.00    +0.023 HD
ATOM     68  H   UNL A   1      -1.326  -0.829  -3.070  0.00  0.00    +0.023 HD
ATOM     69  H   UNL A   1      -0.703  -1.910  -1.842  0.00  0.00    +0.023 HD
ENDBRANCH  60  66
ENDBRANCH  40  60
BRANCH  40  71
ATOM     70  N   UNL A   1      -4.311   0.935  -3.643  0.00  0.00    -0.196 NA
ATOM     71  C   UNL A   1      -3.963   0.540  -2.496  0.00  0.00    +0.074 C 
ENDBRANCH  40  71
ENDBRANCH  37  40
ENDBRANCH   1  37
TORSDOF 21
ENDMDL
MODEL 4
REMARK VINA RESULT:    -6.095     21.886     25.642
REMARK INTER + INTRA:         -14.231
REMARK INTER:                 -12.539
REMARK INTRA:                  -1.692
REMARK UNBOUND:                -1.901
REMARK  Name = 2520
REMARK  21 active torsions:
REMARK  status: ('A' for Active; 'I' for Inactive)
REMARK    1  A    between atoms: O_1  and  C_19
REMARK    2  A    between atoms: O_1  and  C_28
REMARK    3  A    between atoms: O_2  and  C_23
REMARK    4  A    between atoms: O_2  and  C_31
REMARK    5  A    between atoms: O_3  and  C_27
REMARK    6  A    between atoms: O_3  and  C_32
REMARK    7  A    between atoms: O_4  and  C_30
REMARK    8  A    between atoms: O_4  and  C_33
REMARK    9  A    between atoms: N_5  and  C_12
REMARK   10  A    between atoms: N_5  and  C_18
REMARK   11  A    between atoms: N_5  and  C_20
REMARK   12  A    between atoms: C_7  and  C_8
REMARK   13  A    between atoms: C_7  and  C_9
REMARK   14  A    between atoms: C_7  and  C_11
REMARK   15  A    between atoms: C_7  and  C_15
REMARK   16  A    between atoms: C_8  and  C_13
REMARK   17  A    between atoms: C_8  and  C_14
REMARK   18  A    between atoms: C_9  and  C_10
REMARK   19  A    between atoms: C_10  and  C_12
REMARK   20  A    between atoms: C_18  and  C_22
REMARK   21  A    between atoms: C_22  and  C_24
REMARK                            x       y       z     vdW  Elec       q    Type
REMARK                         _______ _______ _______ _____ _____    ______ ____
ROOT
ATOM      1  C   UNL A   1     -23.106  -5.605  23.226  0.00  0.00    -0.038 C 
ATOM      2  H   UNL A   1     -22.084  -5.919  23.456  0.00  0.00    +0.028 HD
ATOM      3  H   UNL A   1     -23.785  -6.235  23.808  0.00  0.00    +0.028 HD
ENDROOT
BRANCH   1   4
ATOM      4  C   UNL A   1     -23.362  -5.890  21.724  0.00  0.00    -0.001 C 
ATOM      5  H   UNL A   1     -22.574  -6.535  21.312  0.00  0.00    +0.043 HD
ATOM      6  H   UNL A   1     -24.294  -6.467  21.666  0.00  0.00    +0.043 HD
BRANCH   4   7
ATOM      7  N   UNL A   1     -23.503  -4.651  20.902  0.00  0.00    -0.305 NA
BRANCH   7   8
ATOM      8  C   UNL A   1     -24.844  -4.593  20.308  0.00  0.00    -0.013 C 
ATOM      9  H   UNL A   1     -24.917  -5.171  19.379  0.00  0.00    +0.039 HD
ATOM     10  H   UNL A   1     -25.598  -4.971  21.008  0.00  0.00    +0.039 HD
ATOM     11  H   UNL A   1     -25.140  -3.558  20.104  0.00  0.00    +0.039 HD
ENDBRANCH   7   8
BRANCH   7  12
ATOM     12  C   UNL A   1     -22.427  -4.533  19.875  0.00  0.00    +0.003 C 
ATOM     13  H   UNL A   1     -21.546  -4.122  20.378  0.00  0.00    +0.043 HD
ATOM     14  H   UNL A   1     -22.167  -5.536  19.515  0.00  0.00    +0.043 HD
BRANCH  12  15
ATOM     15  C   UNL A   1     -22.706  -3.638  18.628  0.00  0.00    -0.015 C 
ATOM     16  H   UNL A   1     -22.659  -4.276  17.734  0.00  0.00    +0.033 HD
ATOM     17  H   UNL A   1     -23.722  -3.230  18.688  0.00  0.00    +0.033 HD
BRANCH  15  18
ATOM     18  C   UNL A   1     -21.738  -2.491  18.345  0.00  0.00    -0.043 A 
ATOM     19  C   UNL A   1     -20.570  -2.623  17.574  0.00  0.00    -0.013 A 
ATOM     20  C   UNL A   1     -22.053  -1.213  18.828  0.00  0.00    -0.055 A 
ATOM     21  C   UNL A   1     -19.793  -1.505  17.188  0.00  0.00    +0.162 A 
ATOM     22  C   UNL A   1     -21.269  -0.106  18.488  0.00  0.00    -0.016 A 
ATOM     23  C   UNL A   1     -20.156  -0.230  17.646  0.00  0.00    +0.162 A 
ATOM     24  H   UNL A   1     -20.267  -3.616  17.267  0.00  0.00    +0.066 HD
ATOM     25  H   UNL A   1     -22.924  -1.061  19.463  0.00  0.00    +0.062 HD
ATOM     26  H   UNL A   1     -21.542   0.877  18.870  0.00  0.00    +0.066 HD
BRANCH  23  27
ATOM     27  O   UNL A   1     -19.553   0.976  17.390  0.00  0.00    -0.491 OA
BRANCH  27  28
ATOM     28  C   UNL A   1     -19.834   2.081  18.241  0.00  0.00    +0.079 C 
ATOM     29  H   UNL A   1     -20.154   2.953  17.665  0.00  0.00    +0.066 HD
ATOM     30  H   UNL A   1     -20.550   1.816  19.027  0.00  0.00    +0.066 HD
ATOM     31  H   UNL A   1     -18.900   2.362  18.739  0.00  0.00    +0.066 HD
ENDBRANCH  27  28
ENDBRANCH  23  27
BRANCH  21  32
ATOM     32  O   UNL A   1     -18.697  -1.603  16.378  0.00  0.00    -0.491 OA
BRANCH  32  33
ATOM     33  C   UNL A   1     -18.856  -1.543  14.969  0.00  0.00    +0.079 C 
ATOM     34  H   UNL A   1     -19.658  -2.217  14.652  0.00  0.00    +0.066 HD
ATOM     35  H   UNL A   1     -19.023  -0.524  14.603  0.00  0.00    +0.066 HD
ATOM     36  H   UNL A   1     -17.922  -1.890  14.519  0.00  0.00    +0.066 HD
ENDBRANCH  32  33
ENDBRANCH  21  32
ENDBRANCH  15  18
ENDBRANCH  12  15
ENDBRANCH   7  12
ENDBRANCH   4   7
ENDBRANCH   1   4
BRANCH   1  37
ATOM     37  C   UNL A   1     -23.296  -4.110  23.649  0.00  0.00    -0.029 C 
ATOM     38  H   UNL A   1     -23.627  -3.551  22.762  0.00  0.00    +0.028 HD
ATOM     39  H   UNL A   1     -22.315  -3.679  23.887  0.00  0.00    +0.028 HD
BRANCH  37  40
ATOM     40  C   UNL A   1     -24.322  -3.835  24.875  0.00  0.00    +0.085 C 
BRANCH  40  41
ATOM     41  C   UNL A   1     -23.755  -2.548  25.541  0.00  0.00    -0.024 A 
ATOM     42  C   UNL A   1     -22.731  -1.828  24.887  0.00  0.00    -0.012 A 
ATOM     43  C   UNL A   1     -24.306  -1.951  26.685  0.00  0.00    -0.053 A 
ATOM     44  C   UNL A   1     -22.314  -0.550  25.296  0.00  0.00    +0.162 A 
ATOM     45  C   UNL A   1     -23.842  -0.717  27.151  0.00  0.00    -0.016 A 
ATOM     46  C   UNL A   1     -22.845  -0.011  26.472  0.00  0.00    +0.162 A 
ATOM     47  H   UNL A   1     -22.272  -2.261  23.999  0.00  0.00    +0.066 HD
ATOM     48  H   UNL A   1     -25.133  -2.399  27.228  0.00  0.00    +0.062 HD
ATOM     49  H   UNL A   1     -24.287  -0.283  28.046  0.00  0.00    +0.066 HD
BRANCH  44  50
ATOM     50  O   UNL A   1     -21.422   0.186  24.561  0.00  0.00    -0.491 OA
BRANCH  50  51
ATOM     51  C   UNL A   1     -20.056   0.031  24.942  0.00  0.00    +0.079 C 
ATOM     52  H   UNL A   1     -19.437   0.199  24.058  0.00  0.00    +0.066 HD
ATOM     53  H   UNL A   1     -19.773   0.780  25.690  0.00  0.00    +0.066 HD
ATOM     54  H   UNL A   1     -19.846  -0.983  25.309  0.00  0.00    +0.066 HD
ENDBRANCH  50  51
ENDBRANCH  44  50
BRANCH  46  55
ATOM     55  O   UNL A   1     -22.574   1.215  27.021  0.00  0.00    -0.491 OA
BRANCH  55  56
ATOM     56  C   UNL A   1     -23.429   2.284  26.635  0.00  0.00    +0.079 C 
ATOM     57  H   UNL A   1     -23.981   2.062  25.715  0.00  0.00    +0.066 HD
ATOM     58  H   UNL A   1     -24.102   2.556  27.452  0.00  0.00    +0.066 HD
ATOM     59  H   UNL A   1     -22.795   3.155  26.439  0.00  0.00    +0.066 HD
ENDBRANCH  55  56
ENDBRANCH  46  55
ENDBRANCH  40  41
BRANCH  40  60
ATOM     60  C   UNL A   1     -25.787  -3.695  24.301  0.00  0.00    -0.024 C 
ATOM     61  H   UNL A   1     -26.438  -3.355  25.116  0.00  0.00    +0.031 HD
BRANCH  60  62
ATOM     62  C   UNL A   1     -26.413  -4.994  23.773  0.00  0.00    -0.061 C 
ATOM     63  H   UNL A   1     -26.539  -5.751  24.556  0.00  0.00    +0.023 HD
ATOM     64  H   UNL A   1     -27.417  -4.791  23.382  0.00  0.00    +0.023 HD
ATOM     65  H   UNL A   1     -25.821  -5.436  22.969  0.00  0.00    +0.023 HD
ENDBRANCH  60  62
BRANCH  60  66
ATOM     66  C   UNL A   1     -25.932  -2.628  23.199  0.00  0.00    -0.061 C 
ATOM     67  H   UNL A   1     -25.343  -2.882  22.313  0.00  0.00    +0.023 HD
ATOM     68  H   UNL A   1     -26.981  -2.540  22.891  0.00  0.00    +0.023 HD
ATOM     69  H   UNL A   1     -25.633  -1.636  23.545  0.00  0.00    +0.023 HD
ENDBRANCH  60  66
ENDBRANCH  40  60
BRANCH  40  71
ATOM     70  N   UNL A   1     -24.110  -5.953  26.666  0.00  0.00    -0.196 NA
ATOM     71  C   UNL A   1     -24.206  -4.992  25.854  0.00  0.00    +0.074 C 
ENDBRANCH  40  71
ENDBRANCH  37  40
ENDBRANCH   1  37
TORSDOF 21
ENDMDL
MODEL 5
REMARK VINA RESULT:    -5.887      2.001      7.154
REMARK INTER + INTRA:         -13.811
REMARK INTER:                 -12.856
REMARK INTRA:                  -0.955
REMARK UNBOUND:                -1.901
REMARK  Name = 2520
REMARK  21 active torsions:
REMARK  status: ('A' for Active; 'I' for Inactive)
REMARK    1  A    between atoms: O_1  and  C_19
REMARK    2  A    between atoms: O_1  and  C_28
REMARK    3  A    between atoms: O_2  and  C_23
REMARK    4  A    between atoms: O_2  and  C_31
REMARK    5  A    between atoms: O_3  and  C_27
REMARK    6  A    between atoms: O_3  and  C_32
REMARK    7  A    between atoms: O_4  and  C_30
REMARK    8  A    between atoms: O_4  and  C_33
REMARK    9  A    between atoms: N_5  and  C_12
REMARK   10  A    between atoms: N_5  and  C_18
REMARK   11  A    between atoms: N_5  and  C_20
REMARK   12  A    between atoms: C_7  and  C_8
REMARK   13  A    between atoms: C_7  and  C_9
REMARK   14  A    between atoms: C_7  and  C_11
REMARK   15  A    between atoms: C_7  and  C_15
REMARK   16  A    between atoms: C_8  and  C_13
REMARK   17  A    between atoms: C_8  and  C_14
REMARK   18  A    between atoms: C_9  and  C_10
REMARK   19  A    between atoms: C_10  and  C_12
REMARK   20  A    between atoms: C_18  and  C_22
REMARK   21  A    between atoms: C_22  and  C_24
REMARK                            x       y       z     vdW  Elec       q    Type
REMARK                         _______ _______ _______ _____ _____    ______ ____
ROOT
ATOM      1  C   UNL A   1      -3.917  -1.580   0.553  0.00  0.00    -0.038 C 
ATOM      2  H   UNL A   1      -2.993  -2.112   0.307  0.00  0.00    +0.028 HD
ATOM      3  H   UNL A   1      -3.689  -0.871   1.353  0.00  0.00    +0.028 HD
ENDROOT
BRANCH   1   4
ATOM      4  C   UNL A   1      -4.925  -2.618   1.109  0.00  0.00    -0.001 C 
ATOM      5  H   UNL A   1      -5.385  -3.188   0.290  0.00  0.00    +0.043 HD
ATOM      6  H   UNL A   1      -4.344  -3.340   1.698  0.00  0.00    +0.043 HD
BRANCH   4   7
ATOM      7  N   UNL A   1      -5.977  -2.013   1.980  0.00  0.00    -0.305 NA
BRANCH   7   8
ATOM      8  C   UNL A   1      -5.546  -2.043   3.381  0.00  0.00    -0.013 C 
ATOM      9  H   UNL A   1      -5.894  -2.938   3.910  0.00  0.00    +0.039 HD
ATOM     10  H   UNL A   1      -4.453  -2.005   3.455  0.00  0.00    +0.039 HD
ATOM     11  H   UNL A   1      -5.898  -1.157   3.921  0.00  0.00    +0.039 HD
ENDBRANCH   7   8
BRANCH   7  12
ATOM     12  C   UNL A   1      -7.306  -2.663   1.786  0.00  0.00    +0.003 C 
ATOM     13  H   UNL A   1      -7.910  -1.986   1.174  0.00  0.00    +0.043 HD
ATOM     14  H   UNL A   1      -7.171  -3.591   1.218  0.00  0.00    +0.043 HD
BRANCH  12  15
ATOM     15  C   UNL A   1      -8.143  -3.004   3.059  0.00  0.00    -0.015 C 
ATOM     16  H   UNL A   1      -8.584  -4.000   2.919  0.00  0.00    +0.033 HD
ATOM     17  H   UNL A   1      -7.479  -3.057   3.931  0.00  0.00    +0.033 HD
BRANCH  15  18
ATOM     18  C   UNL A   1      -9.321  -2.093   3.400  0.00  0.00    -0.043 A 
ATOM     19  C   UNL A   1      -9.954  -2.068   4.654  0.00  0.00    -0.013 A 
ATOM     20  C   UNL A   1      -9.768  -1.183   2.432  0.00  0.00    -0.055 A 
ATOM     21  C   UNL A   1     -10.923  -1.092   4.988  0.00  0.00    +0.162 A 
ATOM     22  C   UNL A   1     -10.755  -0.240   2.737  0.00  0.00    -0.016 A 
ATOM     23  C   UNL A   1     -11.320  -0.163   4.016  0.00  0.00    +0.162 A 
ATOM     24  H   UNL A   1      -9.681  -2.821   5.383  0.00  0.00    +0.066 HD
ATOM     25  H   UNL A   1      -9.339  -1.185   1.431  0.00  0.00    +0.062 HD
ATOM     26  H   UNL A   1     -11.076   0.461   1.968  0.00  0.00    +0.066 HD
BRANCH  23  27
ATOM     27  O   UNL A   1     -12.229   0.861   4.129  0.00  0.00    -0.491 OA
BRANCH  27  28
ATOM     28  C   UNL A   1     -11.965   2.091   3.466  0.00  0.00    +0.079 C 
ATOM     29  H   UNL A   1     -11.194   1.971   2.700  0.00  0.00    +0.066 HD
ATOM     30  H   UNL A   1     -12.881   2.541   3.067  0.00  0.00    +0.066 HD
ATOM     31  H   UNL A   1     -11.562   2.788   4.208  0.00  0.00    +0.066 HD
ENDBRANCH  27  28
ENDBRANCH  23  27
BRANCH  21  32
ATOM     32  O   UNL A   1     -11.497  -1.005   6.225  0.00  0.00    -0.491 OA
BRANCH  32  33
ATOM     33  C   UNL A   1     -11.086  -1.891   7.255  0.00  0.00    +0.079 C 
ATOM     34  H   UNL A   1     -10.455  -2.683   6.840  0.00  0.00    +0.066 HD
ATOM     35  H   UNL A   1     -10.587  -1.377   8.084  0.00  0.00    +0.066 HD
ATOM     36  H   UNL A   1     -11.986  -2.354   7.669  0.00  0.00    +0.066 HD
ENDBRANCH  32  33
ENDBRANCH  21  32
ENDBRANCH  15  18
ENDBRANCH  12  15
ENDBRANCH   7  12
ENDBRANCH   4   7
ENDBRANCH   1   4
BRANCH   1  37
ATOM     37  C   UNL A   1      -4.413  -0.797  -0.709  0.00  0.00    -0.029 C 
ATOM     38  H   UNL A   1      -5.404  -0.382  -0.475  0.00  0.00    +0.028 HD
ATOM     39  H   UNL A   1      -4.605  -1.510  -1.520  0.00  0.00    +0.028 HD
BRANCH  37  40
ATOM     40  C   UNL A   1      -3.444   0.388  -1.245  0.00  0.00    +0.085 C 
BRANCH  40  41
ATOM     41  C   UNL A   1      -3.902   1.630  -0.427  0.00  0.00    -0.024 A 
ATOM     42  C   UNL A   1      -4.679   1.439   0.737  0.00  0.00    -0.012 A 
ATOM     43  C   UNL A   1      -3.458   2.937  -0.675  0.00  0.00    -0.053 A 
ATOM     44  C   UNL A   1      -4.951   2.470   1.651  0.00  0.00    +0.162 A 
ATOM     45  C   UNL A   1      -3.793   3.990   0.183  0.00  0.00    -0.016 A 
ATOM     46  C   UNL A   1      -4.542   3.772   1.343  0.00  0.00    +0.162 A 
ATOM     47  H   UNL A   1      -5.049   0.439   0.961  0.00  0.00    +0.066 HD
ATOM     48  H   UNL A   1      -2.813   3.178  -1.515  0.00  0.00    +0.062 HD
ATOM     49  H   UNL A   1      -3.438   4.994  -0.041  0.00  0.00    +0.066 HD
BRANCH  44  50
ATOM     50  O   UNL A   1      -5.584   2.228   2.842  0.00  0.00    -0.491 OA
BRANCH  50  51
ATOM     51  C   UNL A   1      -6.819   1.524   2.735  0.00  0.00    +0.079 C 
ATOM     52  H   UNL A   1      -7.485   2.103   2.089  0.00  0.00    +0.066 HD
ATOM     53  H   UNL A   1      -6.671   0.546   2.265  0.00  0.00    +0.066 HD
ATOM     54  H   UNL A   1      -7.313   1.415   3.710  0.00  0.00    +0.066 HD
ENDBRANCH  50  51
ENDBRANCH  44  50
BRANCH  46  55
ATOM     55  O   UNL A   1      -4.702   4.897   2.109  0.00  0.00    -0.491 OA
BRANCH  55  56
ATOM     56  C   UNL A   1      -5.997   5.484   2.108  0.00  0.00    +0.079 C 
ATOM     57  H   UNL A   1      -6.758   4.811   2.517  0.00  0.00    +0.066 HD
ATOM     58  H   UNL A   1      -5.987   6.445   2.628  0.00  0.00    +0.066 HD
ATOM     59  H   UNL A   1      -6.262   5.688   1.065  0.00  0.00    +0.066 HD
ENDBRANCH  55  56
ENDBRANCH  46  55
ENDBRANCH  40  41
BRANCH  40  60
ATOM     60  C   UNL A   1      -1.938  -0.036  -1.021  0.00  0.00    -0.024 C 
ATOM     61  H   UNL A   1      -1.809  -0.273   0.043  0.00  0.00    +0.031 HD
BRANCH  60  62
ATOM     62  C   UNL A   1      -0.896   1.046  -1.341  0.00  0.00    -0.061 C 
ATOM     63  H   UNL A   1       0.038   0.630  -1.735  0.00  0.00    +0.023 HD
ATOM     64  H   UNL A   1      -1.282   1.717  -2.118  0.00  0.00    +0.023 HD
ATOM     65  H   UNL A   1      -0.652   1.651  -0.465  0.00  0.00    +0.023 HD
ENDBRANCH  60  62
BRANCH  60  66
ATOM     66  C   UNL A   1      -1.526  -1.315  -1.772  0.00  0.00    -0.061 C 
ATOM     67  H   UNL A   1      -1.325  -2.140  -1.082  0.00  0.00    +0.023 HD
ATOM     68  H   UNL A   1      -2.327  -1.634  -2.449  0.00  0.00    +0.023 HD
ATOM     69  H   UNL A   1      -0.643  -1.159  -2.397  0.00  0.00    +0.023 HD
ENDBRANCH  60  66
ENDBRANCH  40  60
BRANCH  40  71
ATOM     70  N   UNL A   1      -4.010   0.813  -3.935  0.00  0.00    -0.196 NA
ATOM     71  C   UNL A   1      -3.753   0.620  -2.715  0.00  0.00    +0.074 C 
ENDBRANCH  40  71
ENDBRANCH  37  40
ENDBRANCH   1  37
TORSDOF 21
ENDMDL
MODEL 6
REMARK VINA RESULT:    -5.793     26.791     30.669
REMARK INTER + INTRA:         -13.621
REMARK INTER:                  -9.922
REMARK INTRA:                  -3.699
REMARK UNBOUND:                -1.901
REMARK  Name = 2520
REMARK  21 active torsions:
REMARK  status: ('A' for Active; 'I' for Inactive)
REMARK    1  A    between atoms: O_1  and  C_19
REMARK    2  A    between atoms: O_1  and  C_28
REMARK    3  A    between atoms: O_2  and  C_23
REMARK    4  A    between atoms: O_2  and  C_31
REMARK    5  A    between atoms: O_3  and  C_27
REMARK    6  A    between atoms: O_3  and  C_32
REMARK    7  A    between atoms: O_4  and  C_30
REMARK    8  A    between atoms: O_4  and  C_33
REMARK    9  A    between atoms: N_5  and  C_12
REMARK   10  A    between atoms: N_5  and  C_18
REMARK   11  A    between atoms: N_5  and  C_20
REMARK   12  A    between atoms: C_7  and  C_8
REMARK   13  A    between atoms: C_7  and  C_9
REMARK   14  A    between atoms: C_7  and  C_11
REMARK   15  A    between atoms: C_7  and  C_15
REMARK   16  A    between atoms: C_8  and  C_13
REMARK   17  A    between atoms: C_8  and  C_14
REMARK   18  A    between atoms: C_9  and  C_10
REMARK   19  A    between atoms: C_10  and  C_12
REMARK   20  A    between atoms: C_18  and  C_22
REMARK   21  A    between atoms: C_22  and  C_24
REMARK                            x       y       z     vdW  Elec       q    Type
REMARK                         _______ _______ _______ _____ _____    ______ ____
ROOT
ATOM      1  C   UNL A   1     -23.493  -2.473  22.840  0.00  0.00    -0.038 C 
ATOM      2  H   UNL A   1     -23.415  -1.410  22.594  0.00  0.00    +0.028 HD
ATOM      3  H   UNL A   1     -22.618  -2.975  22.419  0.00  0.00    +0.028 HD
ENDROOT
BRANCH   1   4
ATOM      4  C   UNL A   1     -24.752  -3.031  22.128  0.00  0.00    -0.001 C 
ATOM      5  H   UNL A   1     -25.612  -3.038  22.811  0.00  0.00    +0.043 HD
ATOM      6  H   UNL A   1     -25.001  -2.325  21.326  0.00  0.00    +0.043 HD
BRANCH   4   7
ATOM      7  N   UNL A   1     -24.545  -4.387  21.537  0.00  0.00    -0.305 NA
BRANCH   7   8
ATOM      8  C   UNL A   1     -25.000  -4.401  20.142  0.00  0.00    -0.013 C 
ATOM      9  H   UNL A   1     -25.116  -3.392  19.727  0.00  0.00    +0.039 HD
ATOM     10  H   UNL A   1     -24.298  -4.954  19.507  0.00  0.00    +0.039 HD
ATOM     11  H   UNL A   1     -25.952  -4.934  20.043  0.00  0.00    +0.039 HD
ENDBRANCH   7   8
BRANCH   7  12
ATOM     12  C   UNL A   1     -25.192  -5.458  22.350  0.00  0.00    +0.003 C 
ATOM     13  H   UNL A   1     -25.601  -6.192  21.648  0.00  0.00    +0.043 HD
ATOM     14  H   UNL A   1     -24.426  -5.963  22.950  0.00  0.00    +0.043 HD
BRANCH  12  15
ATOM     15  C   UNL A   1     -26.350  -5.043  23.310  0.00  0.00    -0.015 C 
ATOM     16  H   UNL A   1     -26.266  -3.963  23.497  0.00  0.00    +0.033 HD
ATOM     17  H   UNL A   1     -27.315  -5.217  22.818  0.00  0.00    +0.033 HD
BRANCH  15  18
ATOM     18  C   UNL A   1     -26.388  -5.683  24.697  0.00  0.00    -0.043 A 
ATOM     19  C   UNL A   1     -25.306  -5.673  25.594  0.00  0.00    -0.013 A 
ATOM     20  C   UNL A   1     -27.586  -6.265  25.134  0.00  0.00    -0.055 A 
ATOM     21  C   UNL A   1     -25.434  -6.120  26.931  0.00  0.00    +0.162 A 
ATOM     22  C   UNL A   1     -27.712  -6.748  26.441  0.00  0.00    -0.016 A 
ATOM     23  C   UNL A   1     -26.657  -6.655  27.358  0.00  0.00    +0.162 A 
ATOM     24  H   UNL A   1     -24.350  -5.306  25.242  0.00  0.00    +0.066 HD
ATOM     25  H   UNL A   1     -28.443  -6.334  24.467  0.00  0.00    +0.062 HD
ATOM     26  H   UNL A   1     -28.657  -7.187  26.757  0.00  0.00    +0.066 HD
BRANCH  23  27
ATOM     27  O   UNL A   1     -26.996  -7.134  28.599  0.00  0.00    -0.491 OA
BRANCH  27  28
ATOM     28  C   UNL A   1     -27.240  -6.208  29.651  0.00  0.00    +0.079 C 
ATOM     29  H   UNL A   1     -28.308  -6.128  29.869  0.00  0.00    +0.066 HD
ATOM     30  H   UNL A   1     -26.650  -6.444  30.544  0.00  0.00    +0.066 HD
ATOM     31  H   UNL A   1     -26.917  -5.221  29.305  0.00  0.00    +0.066 HD
ENDBRANCH  27  28
ENDBRANCH  23  27
BRANCH  21  32
ATOM     32  O   UNL A   1     -24.416  -6.051  27.840  0.00  0.00    -0.491 OA
BRANCH  32  33
ATOM     33  C   UNL A   1     -23.518  -7.142  27.972  0.00  0.00    +0.079 C 
ATOM     34  H   UNL A   1     -23.899  -8.011  27.428  0.00  0.00    +0.066 HD
ATOM     35  H   UNL A   1     -22.497  -6.892  27.662  0.00  0.00    +0.066 HD
ATOM     36  H   UNL A   1     -23.469  -7.399  29.034  0.00  0.00    +0.066 HD
ENDBRANCH  32  33
ENDBRANCH  21  32
ENDBRANCH  15  18
ENDBRANCH  12  15
ENDBRANCH   7  12
ENDBRANCH   4   7
ENDBRANCH   1   4
BRANCH   1  37
ATOM     37  C   UNL A   1     -23.492  -2.645  24.396  0.00  0.00    -0.029 C 
ATOM     38  H   UNL A   1     -22.484  -2.968  24.695  0.00  0.00    +0.028 HD
ATOM     39  H   UNL A   1     -24.135  -3.492  24.663  0.00  0.00    +0.028 HD
BRANCH  37  40
ATOM     40  C   UNL A   1     -23.921  -1.343  25.262  0.00  0.00    +0.085 C 
BRANCH  40  41
ATOM     41  C   UNL A   1     -25.211  -1.807  25.999  0.00  0.00    -0.024 A 
ATOM     42  C   UNL A   1     -26.431  -1.853  25.289  0.00  0.00    -0.012 A 
ATOM     43  C   UNL A   1     -25.221  -2.346  27.295  0.00  0.00    -0.053 A 
ATOM     44  C   UNL A   1     -27.590  -2.460  25.800  0.00  0.00    +0.162 A 
ATOM     45  C   UNL A   1     -26.390  -2.878  27.847  0.00  0.00    -0.016 A 
ATOM     46  C   UNL A   1     -27.580  -2.936  27.115  0.00  0.00    +0.162 A 
ATOM     47  H   UNL A   1     -26.467  -1.438  24.282  0.00  0.00    +0.066 HD
ATOM     48  H   UNL A   1     -24.323  -2.405  27.902  0.00  0.00    +0.062 HD
ATOM     49  H   UNL A   1     -26.366  -3.283  28.858  0.00  0.00    +0.066 HD
BRANCH  44  50
ATOM     50  O   UNL A   1     -28.717  -2.619  25.036  0.00  0.00    -0.491 OA
BRANCH  50  51
ATOM     51  C   UNL A   1     -29.627  -1.521  25.071  0.00  0.00    +0.079 C 
ATOM     52  H   UNL A   1     -29.530  -0.970  24.132  0.00  0.00    +0.066 HD
ATOM     53  H   UNL A   1     -30.661  -1.875  25.142  0.00  0.00    +0.066 HD
ATOM     54  H   UNL A   1     -29.397  -0.826  25.890  0.00  0.00    +0.066 HD
ENDBRANCH  50  51
ENDBRANCH  44  50
BRANCH  46  55
ATOM     55  O   UNL A   1     -28.600  -3.566  27.779  0.00  0.00    -0.491 OA
BRANCH  55  56
ATOM     56  C   UNL A   1     -29.042  -2.955  28.985  0.00  0.00    +0.079 C 
ATOM     57  H   UNL A   1     -28.214  -2.532  29.564  0.00  0.00    +0.066 HD
ATOM     58  H   UNL A   1     -29.814  -2.208  28.780  0.00  0.00    +0.066 HD
ATOM     59  H   UNL A   1     -29.507  -3.736  29.595  0.00  0.00    +0.066 HD
ENDBRANCH  55  56
ENDBRANCH  46  55
ENDBRANCH  40  41
BRANCH  40  60
ATOM     60  C   UNL A   1     -22.726  -0.936  26.211  0.00  0.00    -0.024 C 
ATOM     61  H   UNL A   1     -22.617  -1.720  26.972  0.00  0.00    +0.031 HD
BRANCH  60  62
ATOM     62  C   UNL A   1     -22.917   0.378  26.983  0.00  0.00    -0.061 C 
ATOM     63  H   UNL A   1     -21.982   0.938  27.102  0.00  0.00    +0.023 HD
ATOM     64  H   UNL A   1     -23.599   1.037  26.434  0.00  0.00    +0.023 HD
ATOM     65  H   UNL A   1     -23.337   0.210  27.977  0.00  0.00    +0.023 HD
ENDBRANCH  60  62
BRANCH  60  66
ATOM     66  C   UNL A   1     -21.358  -0.867  25.507  0.00  0.00    -0.061 C 
ATOM     67  H   UNL A   1     -21.449  -1.048  24.432  0.00  0.00    +0.023 HD
ATOM     68  H   UNL A   1     -20.911   0.126  25.641  0.00  0.00    +0.023 HD
ATOM     69  H   UNL A   1     -20.644  -1.581  25.923  0.00  0.00    +0.023 HD
ENDBRANCH  60  66
ENDBRANCH  40  60
BRANCH  40  71
ATOM     70  N   UNL A   1     -24.574   0.697  23.487  0.00  0.00    -0.196 NA
ATOM     71  C   UNL A   1     -24.278  -0.228  24.292  0.00  0.00    +0.074 C 
ENDBRANCH  40  71
ENDBRANCH  37  40
ENDBRANCH   1  37
TORSDOF 21
ENDMDL
MODEL 7
REMARK VINA RESULT:    -5.632     18.183     21.023
REMARK INTER + INTRA:         -13.295
REMARK INTER:                 -10.159
REMARK INTRA:                  -3.136
REMARK UNBOUND:                -1.901
REMARK  Name = 2520
REMARK  21 active torsions:
REMARK  status: ('A' for Active; 'I' for Inactive)
REMARK    1  A    between atoms: O_1  and  C_19
REMARK    2  A    between atoms: O_1  and  C_28
REMARK    3  A    between atoms: O_2  and  C_23
REMARK    4  A    between atoms: O_2  and  C_31
REMARK    5  A    between atoms: O_3  and  C_27
REMARK    6  A    between atoms: O_3  and  C_32
REMARK    7  A    between atoms: O_4  and  C_30
REMARK    8  A    between atoms: O_4  and  C_33
REMARK    9  A    between atoms: N_5  and  C_12
REMARK   10  A    between atoms: N_5  and  C_18
REMARK   11  A    between atoms: N_5  and  C_20
REMARK   12  A    between atoms: C_7  and  C_8
REMARK   13  A    between atoms: C_7  and  C_9
REMARK   14  A    between atoms: C_7  and  C_11
REMARK   15  A    between atoms: C_7  and  C_15
REMARK   16  A    between atoms: C_8  and  C_13
REMARK   17  A    between atoms: C_8  and  C_14
REMARK   18  A    between atoms: C_9  and  C_10
REMARK   19  A    between atoms: C_10  and  C_12
REMARK   20  A    between atoms: C_18  and  C_22
REMARK   21  A    between atoms: C_22  and  C_24
REMARK                            x       y       z     vdW  Elec       q    Type
REMARK                         _______ _______ _______ _____ _____    ______ ____
ROOT
ATOM      1  C   UNL A   1     -18.221  10.382  -8.084  0.00  0.00    -0.038 C 
ATOM      2  H   UNL A   1     -18.793   9.799  -8.812  0.00  0.00    +0.028 HD
ATOM      3  H   UNL A   1     -17.202  10.484  -8.469  0.00  0.00    +0.028 HD
ENDROOT
BRANCH   1   4
ATOM      4  C   UNL A   1     -18.155   9.562  -6.770  0.00  0.00    -0.001 C 
ATOM      5  H   UNL A   1     -17.153   9.624  -6.325  0.00  0.00    +0.043 HD
ATOM      6  H   UNL A   1     -18.838  10.047  -6.061  0.00  0.00    +0.043 HD
BRANCH   4   7
ATOM      7  N   UNL A   1     -18.562   8.135  -6.942  0.00  0.00    -0.305 NA
BRANCH   7   8
ATOM      8  C   UNL A   1     -17.594   7.436  -7.794  0.00  0.00    -0.013 C 
ATOM      9  H   UNL A   1     -17.990   6.499  -8.200  0.00  0.00    +0.039 HD
ATOM     10  H   UNL A   1     -17.283   8.069  -8.633  0.00  0.00    +0.039 HD
ATOM     11  H   UNL A   1     -16.670   7.220  -7.245  0.00  0.00    +0.039 HD
ENDBRANCH   7   8
BRANCH   7  12
ATOM     12  C   UNL A   1     -19.957   8.009  -7.456  0.00  0.00    +0.003 C 
ATOM     13  H   UNL A   1     -20.564   7.600  -6.642  0.00  0.00    +0.043 HD
ATOM     14  H   UNL A   1     -20.344   9.009  -7.688  0.00  0.00    +0.043 HD
BRANCH  12  15
ATOM     15  C   UNL A   1     -20.194   7.106  -8.706  0.00  0.00    -0.015 C 
ATOM     16  H   UNL A   1     -19.420   6.326  -8.713  0.00  0.00    +0.033 HD
ATOM     17  H   UNL A   1     -21.165   6.605  -8.618  0.00  0.00    +0.033 HD
BRANCH  15  18
ATOM     18  C   UNL A   1     -20.107   7.761 -10.084  0.00  0.00    -0.043 A 
ATOM     19  C   UNL A   1     -19.210   7.357 -11.087  0.00  0.00    -0.013 A 
ATOM     20  C   UNL A   1     -21.011   8.786 -10.397  0.00  0.00    -0.055 A 
ATOM     21  C   UNL A   1     -19.278   7.868 -12.406  0.00  0.00    +0.162 A 
ATOM     22  C   UNL A   1     -21.059   9.328 -11.685  0.00  0.00    -0.016 A 
ATOM     23  C   UNL A   1     -20.222   8.860 -12.706  0.00  0.00    +0.162 A 
ATOM     24  H   UNL A   1     -18.450   6.629 -10.835  0.00  0.00    +0.066 HD
ATOM     25  H   UNL A   1     -21.701   9.163  -9.645  0.00  0.00    +0.062 HD
ATOM     26  H   UNL A   1     -21.778  10.117 -11.904  0.00  0.00    +0.066 HD
BRANCH  23  27
ATOM     27  O   UNL A   1     -20.460   9.481 -13.908  0.00  0.00    -0.491 OA
BRANCH  27  28
ATOM     28  C   UNL A   1     -20.851  10.848 -13.910  0.00  0.00    +0.079 C 
ATOM     29  H   UNL A   1     -21.907  10.958 -14.171  0.00  0.00    +0.066 HD
ATOM     30  H   UNL A   1     -20.602  11.343 -12.965  0.00  0.00    +0.066 HD
ATOM     31  H   UNL A   1     -20.281  11.355 -14.697  0.00  0.00    +0.066 HD
ENDBRANCH  27  28
ENDBRANCH  23  27
BRANCH  21  32
ATOM     32  O   UNL A   1     -18.463   7.436 -13.415  0.00  0.00    -0.491 OA
BRANCH  32  33
ATOM     33  C   UNL A   1     -18.830   6.295 -14.174  0.00  0.00    +0.079 C 
ATOM     34  H   UNL A   1     -17.952   5.880 -14.678  0.00  0.00    +0.066 HD
ATOM     35  H   UNL A   1     -19.345   5.534 -13.578  0.00  0.00    +0.066 HD
ATOM     36  H   UNL A   1     -19.538   6.624 -14.940  0.00  0.00    +0.066 HD
ENDBRANCH  32  33
ENDBRANCH  21  32
ENDBRANCH  15  18
ENDBRANCH  12  15
ENDBRANCH   7  12
ENDBRANCH   4   7
ENDBRANCH   1   4
BRANCH   1  37
ATOM     37  C   UNL A   1     -18.864  11.802  -7.938  0.00  0.00    -0.029 C 
ATOM     38  H   UNL A   1     -18.167  12.426  -7.361  0.00  0.00    +0.028 HD
ATOM     39  H   UNL A   1     -19.751  11.728  -7.297  0.00  0.00    +0.028 HD
BRANCH  37  40
ATOM     40  C   UNL A   1     -19.253  12.559  -9.318  0.00  0.00    +0.085 C 
BRANCH  40  41
ATOM     41  C   UNL A   1     -20.781  12.299  -9.456  0.00  0.00    -0.024 A 
ATOM     42  C   UNL A   1     -21.473  11.678  -8.393  0.00  0.00    -0.012 A 
ATOM     43  C   UNL A   1     -21.566  12.790 -10.511  0.00  0.00    -0.053 A 
ATOM     44  C   UNL A   1     -22.874  11.602  -8.335  0.00  0.00    +0.162 A 
ATOM     45  C   UNL A   1     -22.957  12.646 -10.504  0.00  0.00    -0.016 A 
ATOM     46  C   UNL A   1     -23.622  12.050  -9.429  0.00  0.00    +0.162 A 
ATOM     47  H   UNL A   1     -20.899  11.277  -7.559  0.00  0.00    +0.066 HD
ATOM     48  H   UNL A   1     -21.135  13.329 -11.349  0.00  0.00    +0.062 HD
ATOM     49  H   UNL A   1     -23.537  13.032 -11.341  0.00  0.00    +0.066 HD
BRANCH  44  50
ATOM     50  O   UNL A   1     -23.524  11.123  -7.227  0.00  0.00    -0.491 OA
BRANCH  50  51
ATOM     51  C   UNL A   1     -23.559  12.018  -6.117  0.00  0.00    +0.079 C 
ATOM     52  H   UNL A   1     -23.103  11.515  -5.261  0.00  0.00    +0.066 HD
ATOM     53  H   UNL A   1     -22.970  12.918  -6.323  0.00  0.00    +0.066 HD
ATOM     54  H   UNL A   1     -24.588  12.283  -5.839  0.00  0.00    +0.066 HD
ENDBRANCH  50  51
ENDBRANCH  44  50
BRANCH  46  55
ATOM     55  O   UNL A   1     -24.986  12.070  -9.551  0.00  0.00    -0.491 OA
BRANCH  55  56
ATOM     56  C   UNL A   1     -25.642  13.260  -9.133  0.00  0.00    +0.079 C 
ATOM     57  H   UNL A   1     -24.938  14.079  -8.948  0.00  0.00    +0.066 HD
ATOM     58  H   UNL A   1     -26.416  13.548  -9.849  0.00  0.00    +0.066 HD
ATOM     59  H   UNL A   1     -26.147  13.040  -8.187  0.00  0.00    +0.066 HD
ENDBRANCH  55  56
ENDBRANCH  46  55
ENDBRANCH  40  41
BRANCH  40  60
ATOM     60  C   UNL A   1     -18.847  14.082  -9.204  0.00  0.00    -0.024 C 
ATOM     61  H   UNL A   1     -19.537  14.663  -9.829  0.00  0.00    +0.031 HD
BRANCH  60  62
ATOM     62  C   UNL A   1     -17.435  14.425  -9.703  0.00  0.00    -0.061 C 
ATOM     63  H   UNL A   1     -17.068  13.715 -10.453  0.00  0.00    +0.023 HD
ATOM     64  H   UNL A   1     -17.441  15.406 -10.190  0.00  0.00    +0.023 HD
ATOM     65  H   UNL A   1     -16.710  14.457  -8.887  0.00  0.00    +0.023 HD
ENDBRANCH  60  62
BRANCH  60  66
ATOM     66  C   UNL A   1     -18.994  14.668  -7.788  0.00  0.00    -0.061 C 
ATOM     67  H   UNL A   1     -19.341  13.916  -7.074  0.00  0.00    +0.023 HD
ATOM     68  H   UNL A   1     -18.029  15.048  -7.431  0.00  0.00    +0.023 HD
ATOM     69  H   UNL A   1     -19.682  15.517  -7.763  0.00  0.00    +0.023 HD
ENDBRANCH  60  66
ENDBRANCH  40  60
BRANCH  40  71
ATOM     70  N   UNL A   1     -17.923  11.287 -11.404  0.00  0.00    -0.196 NA
ATOM     71  C   UNL A   1     -18.527  11.864 -10.458  0.00  0.00    +0.074 C 
ENDBRANCH  40  71
ENDBRANCH  37  40
ENDBRANCH   1  37
TORSDOF 21
ENDMDL
MODEL 8
REMARK VINA RESULT:    -5.500     25.816     29.878
REMARK INTER + INTRA:         -13.027
REMARK INTER:                 -10.128
REMARK INTRA:                  -2.899
REMARK UNBOUND:                -1.901
REMARK  Name = 2520
REMARK  21 active torsions:
REMARK  status: ('A' for Active; 'I' for Inactive)
REMARK    1  A    between atoms: O_1  and  C_19
REMARK    2  A    between atoms: O_1  and  C_28
REMARK    3  A    between atoms: O_2  and  C_23
REMARK    4  A    between atoms: O_2  and  C_31
REMARK    5  A    between atoms: O_3  and  C_27
REMARK    6  A    between atoms: O_3  and  C_32
REMARK    7  A    between atoms: O_4  and  C_30
REMARK    8  A    between atoms: O_4  and  C_33
REMARK    9  A    between atoms: N_5  and  C_12
REMARK   10  A    between atoms: N_5  and  C_18
REMARK   11  A    between atoms: N_5  and  C_20
REMARK   12  A    between atoms: C_7  and  C_8
REMARK   13  A    between atoms: C_7  and  C_9
REMARK   14  A    between atoms: C_7  and  C_11
REMARK   15  A    between atoms: C_7  and  C_15
REMARK   16  A    between atoms: C_8  and  C_13
REMARK   17  A    between atoms: C_8  and  C_14
REMARK   18  A    between atoms: C_9  and  C_10
REMARK   19  A    between atoms: C_10  and  C_12
REMARK   20  A    between atoms: C_18  and  C_22
REMARK   21  A    between atoms: C_22  and  C_24
REMARK                            x       y       z     vdW  Elec       q    Type
REMARK                         _______ _______ _______ _____ _____    ______ ____
ROOT
ATOM      1  C   UNL A   1     -27.198  -3.614  27.990  0.00  0.00    -0.038 C 
ATOM      2  H   UNL A   1     -28.122  -4.198  28.008  0.00  0.00    +0.028 HD
ATOM      3  H   UNL A   1     -26.696  -3.757  28.951  0.00  0.00    +0.028 HD
ENDROOT
BRANCH   1   4
ATOM      4  C   UNL A   1     -27.586  -2.118  27.873  0.00  0.00    -0.001 C 
ATOM      5  H   UNL A   1     -27.438  -1.758  26.846  0.00  0.00    +0.043 HD
ATOM      6  H   UNL A   1     -28.665  -2.055  28.069  0.00  0.00    +0.043 HD
BRANCH   4   7
ATOM      7  N   UNL A   1     -26.863  -1.241  28.843  0.00  0.00    -0.305 NA
BRANCH   7   8
ATOM      8  C   UNL A   1     -27.827  -0.530  29.691  0.00  0.00    -0.013 C 
ATOM      9  H   UNL A   1     -28.475  -1.212  30.253  0.00  0.00    +0.039 HD
ATOM     10  H   UNL A   1     -27.311   0.122  30.406  0.00  0.00    +0.039 HD
ATOM     11  H   UNL A   1     -28.454   0.142  29.096  0.00  0.00    +0.039 HD
ENDBRANCH   7   8
BRANCH   7  12
ATOM     12  C   UNL A   1     -25.920  -0.309  28.160  0.00  0.00    +0.003 C 
ATOM     13  H   UNL A   1     -26.403   0.016  27.232  0.00  0.00    +0.043 HD
ATOM     14  H   UNL A   1     -25.777   0.579  28.787  0.00  0.00    +0.043 HD
BRANCH  12  15
ATOM     15  C   UNL A   1     -24.508  -0.852  27.777  0.00  0.00    -0.015 C 
ATOM     16  H   UNL A   1     -23.770  -0.070  28.005  0.00  0.00    +0.033 HD
ATOM     17  H   UNL A   1     -24.268  -1.722  28.401  0.00  0.00    +0.033 HD
BRANCH  15  18
ATOM     18  C   UNL A   1     -24.259  -1.218  26.315  0.00  0.00    -0.043 A 
ATOM     19  C   UNL A   1     -25.232  -1.121  25.306  0.00  0.00    -0.013 A 
ATOM     20  C   UNL A   1     -22.970  -1.619  25.935  0.00  0.00    -0.055 A 
ATOM     21  C   UNL A   1     -24.918  -1.300  23.938  0.00  0.00    +0.162 A 
ATOM     22  C   UNL A   1     -22.658  -1.839  24.589  0.00  0.00    -0.016 A 
ATOM     23  C   UNL A   1     -23.610  -1.655  23.578  0.00  0.00    +0.162 A 
ATOM     24  H   UNL A   1     -26.252  -0.897  25.596  0.00  0.00    +0.066 HD
ATOM     25  H   UNL A   1     -22.188  -1.748  26.680  0.00  0.00    +0.062 HD
ATOM     26  H   UNL A   1     -21.646  -2.141  24.320  0.00  0.00    +0.066 HD
BRANCH  23  27
ATOM     27  O   UNL A   1     -23.094  -1.868  22.324  0.00  0.00    -0.491 OA
BRANCH  27  28
ATOM     28  C   UNL A   1     -22.818  -0.746  21.494  0.00  0.00    +0.079 C 
ATOM     29  H   UNL A   1     -23.652  -0.040  21.494  0.00  0.00    +0.066 HD
ATOM     30  H   UNL A   1     -21.868  -0.269  21.759  0.00  0.00    +0.066 HD
ATOM     31  H   UNL A   1     -22.718  -1.111  20.466  0.00  0.00    +0.066 HD
ENDBRANCH  27  28
ENDBRANCH  23  27
BRANCH  21  32
ATOM     32  O   UNL A   1     -25.833  -1.138  22.936  0.00  0.00    -0.491 OA
BRANCH  32  33
ATOM     33  C   UNL A   1     -26.495   0.109  22.784  0.00  0.00    +0.079 C 
ATOM     34  H   UNL A   1     -25.768   0.926  22.806  0.00  0.00    +0.066 HD
ATOM     35  H   UNL A   1     -27.118   0.152  21.883  0.00  0.00    +0.066 HD
ATOM     36  H   UNL A   1     -27.168   0.229  23.637  0.00  0.00    +0.066 HD
ENDBRANCH  32  33
ENDBRANCH  21  32
ENDBRANCH  15  18
ENDBRANCH  12  15
ENDBRANCH   7  12
ENDBRANCH   4   7
ENDBRANCH   1   4
BRANCH   1  37
ATOM     37  C   UNL A   1     -26.276  -4.142  26.840  0.00  0.00    -0.029 C 
ATOM     38  H   UNL A   1     -25.316  -4.434  27.289  0.00  0.00    +0.028 HD
ATOM     39  H   UNL A   1     -26.019  -3.307  26.176  0.00  0.00    +0.028 HD
BRANCH  37  40
ATOM     40  C   UNL A   1     -26.859  -5.374  25.961  0.00  0.00    +0.085 C 
BRANCH  40  41
ATOM     41  C   UNL A   1     -26.342  -5.072  24.525  0.00  0.00    -0.024 A 
ATOM     42  C   UNL A   1     -24.994  -5.348  24.206  0.00  0.00    -0.012 A 
ATOM     43  C   UNL A   1     -27.171  -4.690  23.459  0.00  0.00    -0.053 A 
ATOM     44  C   UNL A   1     -24.498  -5.315  22.892  0.00  0.00    +0.162 A 
ATOM     45  C   UNL A   1     -26.670  -4.573  22.159  0.00  0.00    -0.016 A 
ATOM     46  C   UNL A   1     -25.338  -4.875  21.863  0.00  0.00    +0.162 A 
ATOM     47  H   UNL A   1     -24.316  -5.640  25.007  0.00  0.00    +0.066 HD
ATOM     48  H   UNL A   1     -28.234  -4.507  23.592  0.00  0.00    +0.062 HD
ATOM     49  H   UNL A   1     -27.338  -4.267  21.355  0.00  0.00    +0.066 HD
BRANCH  44  50
ATOM     50  O   UNL A   1     -23.225  -5.725  22.593  0.00  0.00    -0.491 OA
BRANCH  50  51
ATOM     51  C   UNL A   1     -22.300  -5.655  23.676  0.00  0.00    +0.079 C 
ATOM     52  H   UNL A   1     -21.918  -4.633  23.730  0.00  0.00    +0.066 HD
ATOM     53  H   UNL A   1     -22.797  -5.873  24.628  0.00  0.00    +0.066 HD
ATOM     54  H   UNL A   1     -21.442  -6.324  23.524  0.00  0.00    +0.066 HD
ENDBRANCH  50  51
ENDBRANCH  44  50
BRANCH  46  55
ATOM     55  O   UNL A   1     -25.041  -4.788  20.529  0.00  0.00    -0.491 OA
BRANCH  55  56
ATOM     56  C   UNL A   1     -24.602  -3.520  20.059  0.00  0.00    +0.079 C 
ATOM     57  H   UNL A   1     -23.832  -3.083  20.704  0.00  0.00    +0.066 HD
ATOM     58  H   UNL A   1     -24.269  -3.586  19.020  0.00  0.00    +0.066 HD
ATOM     59  H   UNL A   1     -25.467  -2.848  20.075  0.00  0.00    +0.066 HD
ENDBRANCH  55  56
ENDBRANCH  46  55
ENDBRANCH  40  41
BRANCH  40  60
ATOM     60  C   UNL A   1     -26.347  -6.736  26.578  0.00  0.00    -0.024 C 
ATOM     61  H   UNL A   1     -25.912  -7.332  25.765  0.00  0.00    +0.031 HD
BRANCH  60  62
ATOM     62  C   UNL A   1     -27.431  -7.618  27.216  0.00  0.00    -0.061 C 
ATOM     63  H   UNL A   1     -27.948  -8.247  26.483  0.00  0.00    +0.023 HD
ATOM     64  H   UNL A   1     -26.975  -8.303  27.939  0.00  0.00    +0.023 HD
ATOM     65  H   UNL A   1     -28.183  -7.025  27.741  0.00  0.00    +0.023 HD
ENDBRANCH  60  62
BRANCH  60  66
ATOM     66  C   UNL A   1     -25.214  -6.573  27.609  0.00  0.00    -0.061 C 
ATOM     67  H   UNL A   1     -24.293  -7.059  27.275  0.00  0.00    +0.023 HD
ATOM     68  H   UNL A   1     -24.993  -5.511  27.767  0.00  0.00    +0.023 HD
ATOM     69  H   UNL A   1     -25.487  -6.976  28.587  0.00  0.00    +0.023 HD
ENDBRANCH  60  66
ENDBRANCH  40  60
BRANCH  40  71
ATOM     70  N   UNL A   1     -29.636  -5.209  25.981  0.00  0.00    -0.196 NA
ATOM     71  C   UNL A   1     -28.376  -5.284  25.972  0.00  0.00    +0.074 C 
ENDBRANCH  40  71
ENDBRANCH  37  40
ENDBRANCH   1  37
TORSDOF 21
ENDMDL
MODEL 9
REMARK VINA RESULT:    -5.342     19.749     23.723
REMARK INTER + INTRA:         -12.708
REMARK INTER:                 -10.807
REMARK INTRA:                  -1.901
REMARK UNBOUND:                -1.901
REMARK  Name = 2520
REMARK  21 active torsions:
REMARK  status: ('A' for Active; 'I' for Inactive)
REMARK    1  A    between atoms: O_1  and  C_19
REMARK    2  A    between atoms: O_1  and  C_28
REMARK    3  A    between atoms: O_2  and  C_23
REMARK    4  A    between atoms: O_2  and  C_31
REMARK    5  A    between atoms: O_3  and  C_27
REMARK    6  A    between atoms: O_3  and  C_32
REMARK    7  A    between atoms: O_4  and  C_30
REMARK    8  A    between atoms: O_4  and  C_33
REMARK    9  A    between atoms: N_5  and  C_12
REMARK   10  A    between atoms: N_5  and  C_18
REMARK   11  A    between atoms: N_5  and  C_20
REMARK   12  A    between atoms: C_7  and  C_8
REMARK   13  A    between atoms: C_7  and  C_9
REMARK   14  A    between atoms: C_7  and  C_11
REMARK   15  A    between atoms: C_7  and  C_15
REMARK   16  A    between atoms: C_8  and  C_13
REMARK   17  A    between atoms: C_8  and  C_14
REMARK   18  A    between atoms: C_9  and  C_10
REMARK   19  A    between atoms: C_10  and  C_12
REMARK   20  A    between atoms: C_18  and  C_22
REMARK   21  A    between atoms: C_22  and  C_24
REMARK                            x       y       z     vdW  Elec       q    Type
REMARK                         _______ _______ _______ _____ _____    ______ ____
ROOT
ATOM      1  C   UNL A   1     -23.267 -10.856  10.454  0.00  0.00    -0.038 C 
ATOM      2  H   UNL A   1     -23.720 -10.203  11.206  0.00  0.00    +0.028 HD
ATOM      3  H   UNL A   1     -22.232 -11.042  10.755  0.00  0.00    +0.028 HD
ENDROOT
BRANCH   1   4
ATOM      4  C   UNL A   1     -23.241 -10.083   9.110  0.00  0.00    -0.001 C 
ATOM      5  H   UNL A   1     -23.085 -10.773   8.270  0.00  0.00    +0.043 HD
ATOM      6  H   UNL A   1     -24.242  -9.653   8.975  0.00  0.00    +0.043 HD
BRANCH   4   7
ATOM      7  N   UNL A   1     -22.230  -8.984   9.079  0.00  0.00    -0.305 NA
BRANCH   7   8
ATOM      8  C   UNL A   1     -21.333  -9.096  10.235  0.00  0.00    -0.013 C 
ATOM      9  H   UNL A   1     -21.350 -10.095  10.686  0.00  0.00    +0.039 HD
ATOM     10  H   UNL A   1     -20.299  -8.866   9.950  0.00  0.00    +0.039 HD
ATOM     11  H   UNL A   1     -21.586  -8.358  11.003  0.00  0.00    +0.039 HD
ENDBRANCH   7   8
BRANCH   7  12
ATOM     12  C   UNL A   1     -22.868  -7.639   8.991  0.00  0.00    +0.003 C 
ATOM     13  H   UNL A   1     -22.179  -6.992   8.438  0.00  0.00    +0.043 HD
ATOM     14  H   UNL A   1     -23.791  -7.719   8.404  0.00  0.00    +0.043 HD
BRANCH  12  15
ATOM     15  C   UNL A   1     -23.215  -6.908  10.325  0.00  0.00    -0.015 C 
ATOM     16  H   UNL A   1     -22.547  -7.294  11.107  0.00  0.00    +0.033 HD
ATOM     17  H   UNL A   1     -23.013  -5.835  10.220  0.00  0.00    +0.033 HD
BRANCH  15  18
ATOM     18  C   UNL A   1     -24.625  -7.085  10.886  0.00  0.00    -0.043 A 
ATOM     19  C   UNL A   1     -25.747  -6.380  10.420  0.00  0.00    -0.013 A 
ATOM     20  C   UNL A   1     -24.834  -8.046  11.885  0.00  0.00    -0.055 A 
ATOM     21  C   UNL A   1     -27.062  -6.695  10.841  0.00  0.00    +0.162 A 
ATOM     22  C   UNL A   1     -26.124  -8.338  12.339  0.00  0.00    -0.016 A 
ATOM     23  C   UNL A   1     -27.248  -7.693  11.807  0.00  0.00    +0.162 A 
ATOM     24  H   UNL A   1     -25.591  -5.575   9.712  0.00  0.00    +0.066 HD
ATOM     25  H   UNL A   1     -23.995  -8.594  12.310  0.00  0.00    +0.062 HD
ATOM     26  H   UNL A   1     -26.258  -9.096  13.109  0.00  0.00    +0.066 HD
BRANCH  23  27
ATOM     27  O   UNL A   1     -28.424  -8.156  12.345  0.00  0.00    -0.491 OA
BRANCH  27  28
ATOM     28  C   UNL A   1     -28.391  -9.301  13.190  0.00  0.00    +0.079 C 
ATOM     29  H   UNL A   1     -28.524  -9.022  14.238  0.00  0.00    +0.066 HD
ATOM     30  H   UNL A   1     -29.108 -10.064  12.867  0.00  0.00    +0.066 HD
ATOM     31  H   UNL A   1     -27.393  -9.744  13.109  0.00  0.00    +0.066 HD
ENDBRANCH  27  28
ENDBRANCH  23  27
BRANCH  21  32
ATOM     32  O   UNL A   1     -28.172  -6.071  10.345  0.00  0.00    -0.491 OA
BRANCH  32  33
ATOM     33  C   UNL A   1     -28.716  -6.488   9.102  0.00  0.00    +0.079 C 
ATOM     34  H   UNL A   1     -28.386  -7.504   8.868  0.00  0.00    +0.066 HD
ATOM     35  H   UNL A   1     -29.807  -6.404   9.065  0.00  0.00    +0.066 HD
ATOM     36  H   UNL A   1     -28.323  -5.818   8.332  0.00  0.00    +0.066 HD
ENDBRANCH  32  33
ENDBRANCH  21  32
ENDBRANCH  15  18
ENDBRANCH  12  15
ENDBRANCH   7  12
ENDBRANCH   4   7
ENDBRANCH   1   4
BRANCH   1  37
ATOM     37  C   UNL A   1     -24.046 -12.214  10.412  0.00  0.00    -0.029 C 
ATOM     38  H   UNL A   1     -24.714 -12.188   9.539  0.00  0.00    +0.028 HD
ATOM     39  H   UNL A   1     -24.728 -12.262  11.271  0.00  0.00    +0.028 HD
BRANCH  37  40
ATOM     40  C   UNL A   1     -23.141 -13.559  10.362  0.00  0.00    +0.085 C 
BRANCH  40  41
ATOM     41  C   UNL A   1     -23.480 -14.274  11.702  0.00  0.00    -0.024 A 
ATOM     42  C   UNL A   1     -24.677 -15.017  11.804  0.00  0.00    -0.012 A 
ATOM     43  C   UNL A   1     -22.591 -14.369  12.784  0.00  0.00    -0.053 A 
ATOM     44  C   UNL A   1     -24.959 -15.867  12.886  0.00  0.00    +0.162 A 
ATOM     45  C   UNL A   1     -22.898 -15.147  13.905  0.00  0.00    -0.016 A 
ATOM     46  C   UNL A   1     -24.078 -15.893  13.972  0.00  0.00    +0.162 A 
ATOM     47  H   UNL A   1     -25.396 -14.964  10.988  0.00  0.00    +0.066 HD
ATOM     48  H   UNL A   1     -21.623 -13.878  12.780  0.00  0.00    +0.062 HD
ATOM     49  H   UNL A   1     -22.190 -15.194  14.731  0.00  0.00    +0.066 HD
BRANCH  44  50
ATOM     50  O   UNL A   1     -26.058 -16.684  12.892  0.00  0.00    -0.491 OA
BRANCH  50  51
ATOM     51  C   UNL A   1     -25.887 -17.929  12.216  0.00  0.00    +0.079 C 
ATOM     52  H   UNL A   1     -24.816 -18.095  12.079  0.00  0.00    +0.066 HD
ATOM     53  H   UNL A   1     -26.274 -18.756  12.820  0.00  0.00    +0.066 HD
ATOM     54  H   UNL A   1     -26.354 -17.922  11.222  0.00  0.00    +0.066 HD
ENDBRANCH  50  51
ENDBRANCH  44  50
BRANCH  46  55
ATOM     55  O   UNL A   1     -24.175 -16.662  15.102  0.00  0.00    -0.491 OA
BRANCH  55  56
ATOM     56  C   UNL A   1     -25.052 -16.188  16.116  0.00  0.00    +0.079 C 
ATOM     57  H   UNL A   1     -25.795 -16.940  16.405  0.00  0.00    +0.066 HD
ATOM     58  H   UNL A   1     -24.487 -15.827  16.979  0.00  0.00    +0.066 HD
ATOM     59  H   UNL A   1     -25.593 -15.330  15.705  0.00  0.00    +0.066 HD
ENDBRANCH  55  56
ENDBRANCH  46  55
ENDBRANCH  40  41
BRANCH  40  60
ATOM     60  C   UNL A   1     -23.507 -14.379   9.062  0.00  0.00    -0.024 C 
ATOM     61  H   UNL A   1     -23.778 -15.398   9.370  0.00  0.00    +0.031 HD
BRANCH  60  62
ATOM     62  C   UNL A   1     -22.370 -14.535   8.041  0.00  0.00    -0.061 C 
ATOM     63  H   UNL A   1     -22.361 -15.524   7.567  0.00  0.00    +0.023 HD
ATOM     64  H   UNL A   1     -22.496 -13.810   7.230  0.00  0.00    +0.023 HD
ATOM     65  H   UNL A   1     -21.390 -14.369   8.493  0.00  0.00    +0.023 HD
ENDBRANCH  60  62
BRANCH  60  66
ATOM     66  C   UNL A   1     -24.739 -13.846   8.307  0.00  0.00    -0.061 C 
ATOM     67  H   UNL A   1     -25.660 -14.327   8.649  0.00  0.00    +0.023 HD
ATOM     68  H   UNL A   1     -24.846 -12.766   8.469  0.00  0.00    +0.023 HD
ATOM     69  H   UNL A   1     -24.652 -13.985   7.227  0.00  0.00    +0.023 HD
ENDBRANCH  60  66
ENDBRANCH  40  60
BRANCH  40  71
ATOM     70  N   UNL A   1     -20.465 -12.800  10.388  0.00  0.00    -0.196 NA
ATOM     71  C   UNL A   1     -21.679 -13.144  10.376  0.00  0.00    +0.074 C 
ENDBRANCH  40  71
ENDBRANCH  37  40
ENDBRANCH   1  37
TORSDOF 21
ENDMDL
