MODEL 1
REMARK VINA RESULT:    -6.037      0.000      0.000
REMARK INTER + INTRA:         -13.925
REMARK INTER:                 -10.121
REMARK INTRA:                  -3.805
REMARK UNBOUND:                -1.712
REMARK  Name = 2520
REMARK  21 active torsions:
REMARK  status: ('A' for Active; 'I' for Inactive)
REMARK    1  A    between atoms: O_1  and  C_19
REMARK    2  A    between atoms: O_1  and  C_28
REMARK    3  A    between atoms: O_2  and  C_23
REMARK    4  A    between atoms: O_2  and  C_31
REMARK    5  A    between atoms: O_3  and  C_27
REMARK    6  A    between atoms: O_3  and  C_32
REMARK    7  A    between atoms: O_4  and  C_30
REMARK    8  A    between atoms: O_4  and  C_33
REMARK    9  A    between atoms: N_5  and  C_12
REMARK   10  A    between atoms: N_5  and  C_18
REMARK   11  A    between atoms: N_5  and  C_20
REMARK   12  A    between atoms: C_7  and  C_8
REMARK   13  A    between atoms: C_7  and  C_9
REMARK   14  A    between atoms: C_7  and  C_11
REMARK   15  A    between atoms: C_7  and  C_15
REMARK   16  A    between atoms: C_8  and  C_13
REMARK   17  A    between atoms: C_8  and  C_14
REMARK   18  A    between atoms: C_9  and  C_10
REMARK   19  A    between atoms: C_10  and  C_12
REMARK   20  A    between atoms: C_18  and  C_22
REMARK   21  A    between atoms: C_22  and  C_24
REMARK                            x       y       z     vdW  Elec       q    Type
REMARK                         _______ _______ _______ _____ _____    ______ ____
ROOT
ATOM      1  C   UNL A   1     -25.849  -5.757  26.100  0.00  0.00    -0.038 C 
ATOM      2  H   UNL A   1     -26.538  -5.921  25.267  0.00  0.00    +0.028 HD
ATOM      3  H   UNL A   1     -25.534  -6.737  26.469  0.00  0.00    +0.028 HD
ENDROOT
BRANCH   1   4
ATOM      4  C   UNL A   1     -26.637  -5.052  27.234  0.00  0.00    -0.001 C 
ATOM      5  H   UNL A   1     -27.434  -4.421  26.817  0.00  0.00    +0.043 HD
ATOM      6  H   UNL A   1     -27.138  -5.842  27.809  0.00  0.00    +0.043 HD
BRANCH   4   7
ATOM      7  N   UNL A   1     -25.768  -4.257  28.152  0.00  0.00    -0.305 NA
BRANCH   7   8
ATOM      8  C   UNL A   1     -25.766  -4.862  29.489  0.00  0.00    -0.013 C 
ATOM      9  H   UNL A   1     -25.218  -4.259  30.223  0.00  0.00    +0.039 HD
ATOM     10  H   UNL A   1     -26.789  -5.003  29.856  0.00  0.00    +0.039 HD
ATOM     11  H   UNL A   1     -25.332  -5.867  29.465  0.00  0.00    +0.039 HD
ENDBRANCH   7   8
BRANCH   7  12
ATOM     12  C   UNL A   1     -26.160  -2.818  28.187  0.00  0.00    +0.003 C 
ATOM     13  H   UNL A   1     -26.725  -2.615  27.271  0.00  0.00    +0.043 HD
ATOM     14  H   UNL A   1     -26.833  -2.651  29.036  0.00  0.00    +0.043 HD
BRANCH  12  15
ATOM     15  C   UNL A   1     -25.020  -1.755  28.269  0.00  0.00    -0.015 C 
ATOM     16  H   UNL A   1     -25.074  -1.274  29.256  0.00  0.00    +0.033 HD
ATOM     17  H   UNL A   1     -24.046  -2.254  28.199  0.00  0.00    +0.033 HD
BRANCH  15  18
ATOM     18  C   UNL A   1     -25.048  -0.603  27.266  0.00  0.00    -0.043 A 
ATOM     19  C   UNL A   1     -24.380   0.619  27.457  0.00  0.00    -0.013 A 
ATOM     20  C   UNL A   1     -25.728  -0.785  26.054  0.00  0.00    -0.055 A 
ATOM     21  C   UNL A   1     -24.284   1.591  26.433  0.00  0.00    +0.162 A 
ATOM     22  C   UNL A   1     -25.675   0.187  25.050  0.00  0.00    -0.016 A 
ATOM     23  C   UNL A   1     -24.934   1.365  25.212  0.00  0.00    +0.162 A 
ATOM     24  H   UNL A   1     -23.924   0.810  28.421  0.00  0.00    +0.066 HD
ATOM     25  H   UNL A   1     -26.294  -1.697  25.869  0.00  0.00    +0.062 HD
ATOM     26  H   UNL A   1     -26.205   0.015  24.114  0.00  0.00    +0.066 HD
BRANCH  23  27
ATOM     27  O   UNL A   1     -24.964   2.163  24.096  0.00  0.00    -0.491 OA
BRANCH  27  28
ATOM     28  C   UNL A   1     -26.223   2.506  23.528  0.00  0.00    +0.079 C 
ATOM     29  H   UNL A   1     -26.861   3.010  24.258  0.00  0.00    +0.066 HD
ATOM     30  H   UNL A   1     -26.107   3.086  22.606  0.00  0.00    +0.066 HD
ATOM     31  H   UNL A   1     -26.731   1.574  23.260  0.00  0.00    +0.066 HD
ENDBRANCH  27  28
ENDBRANCH  23  27
BRANCH  21  32
ATOM     32  O   UNL A   1     -23.577   2.753  26.573  0.00  0.00    -0.491 OA
BRANCH  32  33
ATOM     33  C   UNL A   1     -22.168   2.703  26.736  0.00  0.00    +0.079 C 
ATOM     34  H   UNL A   1     -21.830   1.663  26.769  0.00  0.00    +0.066 HD
ATOM     35  H   UNL A   1     -21.631   3.274  25.971  0.00  0.00    +0.066 HD
ATOM     36  H   UNL A   1     -21.933   3.167  27.697  0.00  0.00    +0.066 HD
ENDBRANCH  32  33
ENDBRANCH  21  32
ENDBRANCH  15  18
ENDBRANCH  12  15
ENDBRANCH   7  12
ENDBRANCH   4   7
ENDBRANCH   1   4
BRANCH   1  37
ATOM     37  C   UNL A   1     -24.597  -4.970  25.587  0.00  0.00    -0.029 C 
ATOM     38  H   UNL A   1     -23.723  -5.630  25.687  0.00  0.00    +0.028 HD
ATOM     39  H   UNL A   1     -24.387  -4.142  26.276  0.00  0.00    +0.028 HD
BRANCH  37  40
ATOM     40  C   UNL A   1     -24.677  -4.405  24.068  0.00  0.00    +0.085 C 
BRANCH  40  41
ATOM     41  C   UNL A   1     -23.686  -3.205  24.075  0.00  0.00    -0.024 A 
ATOM     42  C   UNL A   1     -23.713  -2.283  23.006  0.00  0.00    -0.012 A 
ATOM     43  C   UNL A   1     -22.864  -2.876  25.164  0.00  0.00    -0.053 A 
ATOM     44  C   UNL A   1     -23.018  -1.063  23.032  0.00  0.00    +0.162 A 
ATOM     45  C   UNL A   1     -22.102  -1.703  25.166  0.00  0.00    -0.016 A 
ATOM     46  C   UNL A   1     -22.164  -0.793  24.106  0.00  0.00    +0.162 A 
ATOM     47  H   UNL A   1     -24.333  -2.506  22.139  0.00  0.00    +0.066 HD
ATOM     48  H   UNL A   1     -22.814  -3.492  26.057  0.00  0.00    +0.062 HD
ATOM     49  H   UNL A   1     -21.469  -1.480  26.023  0.00  0.00    +0.066 HD
BRANCH  44  50
ATOM     50  O   UNL A   1     -23.175  -0.124  22.046  0.00  0.00    -0.491 OA
BRANCH  50  51
ATOM     51  C   UNL A   1     -24.460  -0.110  21.426  0.00  0.00    +0.079 C 
ATOM     52  H   UNL A   1     -24.566   0.835  20.889  0.00  0.00    +0.066 HD
ATOM     53  H   UNL A   1     -24.547  -0.919  20.693  0.00  0.00    +0.066 HD
ATOM     54  H   UNL A   1     -25.270  -0.167  22.165  0.00  0.00    +0.066 HD
ENDBRANCH  50  51
ENDBRANCH  44  50
BRANCH  46  55
ATOM     55  O   UNL A   1     -21.420   0.338  24.314  0.00  0.00    -0.491 OA
BRANCH  55  56
ATOM     56  C   UNL A   1     -20.163   0.160  24.954  0.00  0.00    +0.079 C 
ATOM     57  H   UNL A   1     -19.379   0.781  24.507  0.00  0.00    +0.066 HD
ATOM     58  H   UNL A   1     -20.249   0.332  26.030  0.00  0.00    +0.066 HD
ATOM     59  H   UNL A   1     -19.873  -0.887  24.818  0.00  0.00    +0.066 HD
ENDBRANCH  55  56
ENDBRANCH  46  55
ENDBRANCH  40  41
BRANCH  40  60
ATOM     60  C   UNL A   1     -24.304  -5.567  23.065  0.00  0.00    -0.024 C 
ATOM     61  H   UNL A   1     -24.754  -6.495  23.441  0.00  0.00    +0.031 HD
BRANCH  60  62
ATOM     62  C   UNL A   1     -22.803  -5.854  22.920  0.00  0.00    -0.061 C 
ATOM     63  H   UNL A   1     -22.600  -6.756  22.332  0.00  0.00    +0.023 HD
ATOM     64  H   UNL A   1     -22.315  -5.028  22.388  0.00  0.00    +0.023 HD
ATOM     65  H   UNL A   1     -22.313  -5.966  23.889  0.00  0.00    +0.023 HD
ENDBRANCH  60  62
BRANCH  60  66
ATOM     66  C   UNL A   1     -24.882  -5.385  21.649  0.00  0.00    -0.061 C 
ATOM     67  H   UNL A   1     -25.945  -5.130  21.677  0.00  0.00    +0.023 HD
ATOM     68  H   UNL A   1     -24.358  -4.576  21.125  0.00  0.00    +0.023 HD
ATOM     69  H   UNL A   1     -24.752  -6.279  21.034  0.00  0.00    +0.023 HD
ENDBRANCH  60  66
ENDBRANCH  40  60
BRANCH  40  71
ATOM     70  N   UNL A   1     -27.255  -3.452  23.638  0.00  0.00    -0.196 NA
ATOM     71  C   UNL A   1     -26.085  -3.884  23.833  0.00  0.00    +0.074 C 
ENDBRANCH  40  71
ENDBRANCH  37  40
ENDBRANCH   1  37
TORSDOF 21
ENDMDL
MODEL 2
REMARK VINA RESULT:    -5.713     14.638     17.806
REMARK INTER + INTRA:         -13.269
REMARK INTER:                 -11.820
REMARK INTRA:                  -1.450
REMARK UNBOUND:                -1.712
REMARK  Name = 2520
REMARK  21 active torsions:
REMARK  status: ('A' for Active; 'I' for Inactive)
REMARK    1  A    between atoms: O_1  and  C_19
REMARK    2  A    between atoms: O_1  and  C_28
REMARK    3  A    between atoms: O_2  and  C_23
REMARK    4  A    between atoms: O_2  and  C_31
REMARK    5  A    between atoms: O_3  and  C_27
REMARK    6  A    between atoms: O_3  and  C_32
REMARK    7  A    between atoms: O_4  and  C_30
REMARK    8  A    between atoms: O_4  and  C_33
REMARK    9  A    between atoms: N_5  and  C_12
REMARK   10  A    between atoms: N_5  and  C_18
REMARK   11  A    between atoms: N_5  and  C_20
REMARK   12  A    between atoms: C_7  and  C_8
REMARK   13  A    between atoms: C_7  and  C_9
REMARK   14  A    between atoms: C_7  and  C_11
REMARK   15  A    between atoms: C_7  and  C_15
REMARK   16  A    between atoms: C_8  and  C_13
REMARK   17  A    between atoms: C_8  and  C_14
REMARK   18  A    between atoms: C_9  and  C_10
REMARK   19  A    between atoms: C_10  and  C_12
REMARK   20  A    between atoms: C_18  and  C_22
REMARK   21  A    between atoms: C_22  and  C_24
REMARK                            x       y       z     vdW  Elec       q    Type
REMARK                         _______ _______ _______ _____ _____    ______ ____
ROOT
ATOM      1  C   UNL A   1     -23.344 -10.038   9.000  0.00  0.00    -0.038 C 
ATOM      2  H   UNL A   1     -24.337 -10.333   9.353  0.00  0.00    +0.028 HD
ATOM      3  H   UNL A   1     -23.466  -9.570   8.019  0.00  0.00    +0.028 HD
ENDROOT
BRANCH   1   4
ATOM      4  C   UNL A   1     -22.506 -11.328   8.812  0.00  0.00    -0.001 C 
ATOM      5  H   UNL A   1     -23.087 -12.094   8.281  0.00  0.00    +0.043 HD
ATOM      6  H   UNL A   1     -21.667 -11.066   8.154  0.00  0.00    +0.043 HD
BRANCH   4   7
ATOM      7  N   UNL A   1     -21.968 -11.876  10.093  0.00  0.00    -0.305 NA
BRANCH   7   8
ATOM      8  C   UNL A   1     -20.513 -12.041   9.997  0.00  0.00    -0.013 C 
ATOM      9  H   UNL A   1     -20.030 -12.099  10.979  0.00  0.00    +0.039 HD
ATOM     10  H   UNL A   1     -20.259 -12.947   9.435  0.00  0.00    +0.039 HD
ATOM     11  H   UNL A   1     -20.061 -11.220   9.430  0.00  0.00    +0.039 HD
ENDBRANCH   7   8
BRANCH   7  12
ATOM     12  C   UNL A   1     -22.652 -13.140  10.493  0.00  0.00    +0.003 C 
ATOM     13  H   UNL A   1     -23.728 -12.940  10.484  0.00  0.00    +0.043 HD
ATOM     14  H   UNL A   1     -22.451 -13.909   9.738  0.00  0.00    +0.043 HD
BRANCH  12  15
ATOM     15  C   UNL A   1     -22.307 -13.744  11.890  0.00  0.00    -0.015 C 
ATOM     16  H   UNL A   1     -21.343 -14.264  11.807  0.00  0.00    +0.033 HD
ATOM     17  H   UNL A   1     -22.183 -12.935  12.619  0.00  0.00    +0.033 HD
BRANCH  15  18
ATOM     18  C   UNL A   1     -23.266 -14.781  12.473  0.00  0.00    -0.043 A 
ATOM     19  C   UNL A   1     -23.281 -15.161  13.825  0.00  0.00    -0.013 A 
ATOM     20  C   UNL A   1     -24.233 -15.348  11.631  0.00  0.00    -0.055 A 
ATOM     21  C   UNL A   1     -24.294 -15.990  14.363  0.00  0.00    +0.162 A 
ATOM     22  C   UNL A   1     -25.215 -16.202  12.142  0.00  0.00    -0.016 A 
ATOM     23  C   UNL A   1     -25.277 -16.508  13.508  0.00  0.00    +0.162 A 
ATOM     24  H   UNL A   1     -22.489 -14.799  14.470  0.00  0.00    +0.066 HD
ATOM     25  H   UNL A   1     -24.243 -15.118  10.567  0.00  0.00    +0.062 HD
ATOM     26  H   UNL A   1     -25.960 -16.622  11.467  0.00  0.00    +0.066 HD
BRANCH  23  27
ATOM     27  O   UNL A   1     -26.343 -17.317  13.818  0.00  0.00    -0.491 OA
BRANCH  27  28
ATOM     28  C   UNL A   1     -27.553 -16.719  14.268  0.00  0.00    +0.079 C 
ATOM     29  H   UNL A   1     -28.101 -16.263  13.440  0.00  0.00    +0.066 HD
ATOM     30  H   UNL A   1     -28.168 -17.426  14.835  0.00  0.00    +0.066 HD
ATOM     31  H   UNL A   1     -27.287 -15.906  14.952  0.00  0.00    +0.066 HD
ENDBRANCH  27  28
ENDBRANCH  23  27
BRANCH  21  32
ATOM     32  O   UNL A   1     -24.368 -16.312  15.689  0.00  0.00    -0.491 OA
BRANCH  32  33
ATOM     33  C   UNL A   1     -24.802 -15.338  16.626  0.00  0.00    +0.079 C 
ATOM     34  H   UNL A   1     -25.126 -14.432  16.104  0.00  0.00    +0.066 HD
ATOM     35  H   UNL A   1     -25.582 -15.712  17.298  0.00  0.00    +0.066 HD
ATOM     36  H   UNL A   1     -23.944 -15.081  17.253  0.00  0.00    +0.066 HD
ENDBRANCH  32  33
ENDBRANCH  21  32
ENDBRANCH  15  18
ENDBRANCH  12  15
ENDBRANCH   7  12
ENDBRANCH   4   7
ENDBRANCH   1   4
BRANCH   1  37
ATOM     37  C   UNL A   1     -22.730  -8.998   9.997  0.00  0.00    -0.029 C 
ATOM     38  H   UNL A   1     -21.639  -9.015   9.866  0.00  0.00    +0.028 HD
ATOM     39  H   UNL A   1     -22.883  -9.354  11.024  0.00  0.00    +0.028 HD
BRANCH  37  40
ATOM     40  C   UNL A   1     -23.268  -7.473   9.865  0.00  0.00    +0.085 C 
BRANCH  40  41
ATOM     41  C   UNL A   1     -24.418  -7.403  10.911  0.00  0.00    -0.024 A 
ATOM     42  C   UNL A   1     -25.487  -6.504  10.700  0.00  0.00    -0.012 A 
ATOM     43  C   UNL A   1     -24.555  -8.297  11.984  0.00  0.00    -0.053 A 
ATOM     44  C   UNL A   1     -26.665  -6.526  11.465  0.00  0.00    +0.162 A 
ATOM     45  C   UNL A   1     -25.687  -8.272  12.805  0.00  0.00    -0.016 A 
ATOM     46  C   UNL A   1     -26.744  -7.390  12.561  0.00  0.00    +0.162 A 
ATOM     47  H   UNL A   1     -25.416  -5.790   9.881  0.00  0.00    +0.066 HD
ATOM     48  H   UNL A   1     -23.813  -9.061  12.198  0.00  0.00    +0.062 HD
ATOM     49  H   UNL A   1     -25.760  -8.975  13.634  0.00  0.00    +0.066 HD
BRANCH  44  50
ATOM     50  O   UNL A   1     -27.743  -5.741  11.148  0.00  0.00    -0.491 OA
BRANCH  50  51
ATOM     51  C   UNL A   1     -28.554  -6.233  10.084  0.00  0.00    +0.079 C 
ATOM     52  H   UNL A   1     -27.905  -6.754   9.376  0.00  0.00    +0.066 HD
ATOM     53  H   UNL A   1     -29.287  -6.958  10.455  0.00  0.00    +0.066 HD
ATOM     54  H   UNL A   1     -29.054  -5.419   9.541  0.00  0.00    +0.066 HD
ENDBRANCH  50  51
ENDBRANCH  44  50
BRANCH  46  55
ATOM     55  O   UNL A   1     -27.806  -7.562  13.410  0.00  0.00    -0.491 OA
BRANCH  55  56
ATOM     56  C   UNL A   1     -28.680  -8.645  13.118  0.00  0.00    +0.079 C 
ATOM     57  H   UNL A   1     -29.555  -8.327  12.540  0.00  0.00    +0.066 HD
ATOM     58  H   UNL A   1     -28.141  -9.456  12.621  0.00  0.00    +0.066 HD
ATOM     59  H   UNL A   1     -29.041  -9.040  14.073  0.00  0.00    +0.066 HD
ENDBRANCH  55  56
ENDBRANCH  46  55
ENDBRANCH  40  41
BRANCH  40  60
ATOM     60  C   UNL A   1     -22.070  -6.479  10.130  0.00  0.00    -0.024 C 
ATOM     61  H   UNL A   1     -21.834  -6.511  11.201  0.00  0.00    +0.031 HD
BRANCH  60  62
ATOM     62  C   UNL A   1     -22.354  -5.005   9.805  0.00  0.00    -0.061 C 
ATOM     63  H   UNL A   1     -22.762  -4.865   8.797  0.00  0.00    +0.023 HD
ATOM     64  H   UNL A   1     -23.107  -4.610  10.496  0.00  0.00    +0.023 HD
ATOM     65  H   UNL A   1     -21.459  -4.387   9.894  0.00  0.00    +0.023 HD
ENDBRANCH  60  62
BRANCH  60  66
ATOM     66  C   UNL A   1     -20.760  -6.867   9.418  0.00  0.00    -0.061 C 
ATOM     67  H   UNL A   1     -20.850  -6.778   8.332  0.00  0.00    +0.023 HD
ATOM     68  H   UNL A   1     -19.943  -6.210   9.741  0.00  0.00    +0.023 HD
ATOM     69  H   UNL A   1     -20.446  -7.885   9.661  0.00  0.00    +0.023 HD
ENDBRANCH  60  66
ENDBRANCH  40  60
BRANCH  40  71
ATOM     70  N   UNL A   1     -24.336  -7.153   7.317  0.00  0.00    -0.196 NA
ATOM     71  C   UNL A   1     -23.852  -7.299   8.473  0.00  0.00    +0.074 C 
ENDBRANCH  40  71
ENDBRANCH  37  40
ENDBRANCH   1  37
TORSDOF 21
ENDMDL
MODEL 3
REMARK VINA RESULT:    -5.467     74.639     77.682
REMARK INTER + INTRA:         -12.773
REMARK INTER:                 -12.005
REMARK INTRA:                  -0.768
REMARK UNBOUND:                -1.712
REMARK  Name = 2520
REMARK  21 active torsions:
REMARK  status: ('A' for Active; 'I' for Inactive)
REMARK    1  A    between atoms: O_1  and  C_19
REMARK    2  A    between atoms: O_1  and  C_28
REMARK    3  A    between atoms: O_2  and  C_23
REMARK    4  A    between atoms: O_2  and  C_31
REMARK    5  A    between atoms: O_3  and  C_27
REMARK    6  A    between atoms: O_3  and  C_32
REMARK    7  A    between atoms: O_4  and  C_30
REMARK    8  A    between atoms: O_4  and  C_33
REMARK    9  A    between atoms: N_5  and  C_12
REMARK   10  A    between atoms: N_5  and  C_18
REMARK   11  A    between atoms: N_5  and  C_20
REMARK   12  A    between atoms: C_7  and  C_8
REMARK   13  A    between atoms: C_7  and  C_9
REMARK   14  A    between atoms: C_7  and  C_11
REMARK   15  A    between atoms: C_7  and  C_15
REMARK   16  A    between atoms: C_8  and  C_13
REMARK   17  A    between atoms: C_8  and  C_14
REMARK   18  A    between atoms: C_9  and  C_10
REMARK   19  A    between atoms: C_10  and  C_12
REMARK   20  A    between atoms: C_18  and  C_22
REMARK   21  A    between atoms: C_22  and  C_24
REMARK                            x       y       z     vdW  Elec       q    Type
REMARK                         _______ _______ _______ _____ _____    ______ ____
ROOT
ATOM      1  C   UNL A   1      27.322  17.647 -30.166  0.00  0.00    -0.038 C 
ATOM      2  H   UNL A   1      27.021  16.669 -30.553  0.00  0.00    +0.028 HD
ATOM      3  H   UNL A   1      28.401  17.744 -30.314  0.00  0.00    +0.028 HD
ENDROOT
BRANCH   1   4
ATOM      4  C   UNL A   1      27.047  17.657 -28.640  0.00  0.00    -0.001 C 
ATOM      5  H   UNL A   1      25.995  17.897 -28.438  0.00  0.00    +0.043 HD
ATOM      6  H   UNL A   1      27.203  16.630 -28.285  0.00  0.00    +0.043 HD
BRANCH   4   7
ATOM      7  N   UNL A   1      27.947  18.578 -27.883  0.00  0.00    -0.305 NA
BRANCH   7   8
ATOM      8  C   UNL A   1      29.334  18.107 -27.971  0.00  0.00    -0.013 C 
ATOM      9  H   UNL A   1      29.883  18.236 -27.030  0.00  0.00    +0.039 HD
ATOM     10  H   UNL A   1      29.371  17.046 -28.246  0.00  0.00    +0.039 HD
ATOM     11  H   UNL A   1      29.877  18.626 -28.769  0.00  0.00    +0.039 HD
ENDBRANCH   7   8
BRANCH   7  12
ATOM     12  C   UNL A   1      27.503  18.759 -26.470  0.00  0.00    +0.003 C 
ATOM     13  H   UNL A   1      27.914  19.712 -26.123  0.00  0.00    +0.043 HD
ATOM     14  H   UNL A   1      26.410  18.841 -26.447  0.00  0.00    +0.043 HD
BRANCH  12  15
ATOM     15  C   UNL A   1      27.919  17.671 -25.431  0.00  0.00    -0.015 C 
ATOM     16  H   UNL A   1      27.004  17.267 -24.977  0.00  0.00    +0.033 HD
ATOM     17  H   UNL A   1      28.422  16.844 -25.947  0.00  0.00    +0.033 HD
BRANCH  15  18
ATOM     18  C   UNL A   1      28.786  18.109 -24.252  0.00  0.00    -0.043 A 
ATOM     19  C   UNL A   1      28.741  17.509 -22.982  0.00  0.00    -0.013 A 
ATOM     20  C   UNL A   1      29.728  19.127 -24.453  0.00  0.00    -0.055 A 
ATOM     21  C   UNL A   1      29.678  17.823 -21.969  0.00  0.00    +0.162 A 
ATOM     22  C   UNL A   1      30.633  19.475 -23.446  0.00  0.00    -0.016 A 
ATOM     23  C   UNL A   1      30.640  18.813 -22.211  0.00  0.00    +0.162 A 
ATOM     24  H   UNL A   1      27.962  16.783 -22.784  0.00  0.00    +0.066 HD
ATOM     25  H   UNL A   1      29.780  19.652 -25.406  0.00  0.00    +0.062 HD
ATOM     26  H   UNL A   1      31.360  20.264 -23.632  0.00  0.00    +0.066 HD
BRANCH  23  27
ATOM     27  O   UNL A   1      31.636  19.262 -21.379  0.00  0.00    -0.491 OA
BRANCH  27  28
ATOM     28  C   UNL A   1      32.148  20.576 -21.565  0.00  0.00    +0.079 C 
ATOM     29  H   UNL A   1      31.358  21.270 -21.861  0.00  0.00    +0.066 HD
ATOM     30  H   UNL A   1      32.701  20.925 -20.686  0.00  0.00    +0.066 HD
ATOM     31  H   UNL A   1      32.860  20.540 -22.397  0.00  0.00    +0.066 HD
ENDBRANCH  27  28
ENDBRANCH  23  27
BRANCH  21  32
ATOM     32  O   UNL A   1      29.697  17.199 -20.753  0.00  0.00    -0.491 OA
BRANCH  32  33
ATOM     33  C   UNL A   1      29.088  17.824 -19.633  0.00  0.00    +0.079 C 
ATOM     34  H   UNL A   1      28.869  17.081 -18.860  0.00  0.00    +0.066 HD
ATOM     35  H   UNL A   1      29.683  18.653 -19.232  0.00  0.00    +0.066 HD
ATOM     36  H   UNL A   1      28.141  18.253 -19.971  0.00  0.00    +0.066 HD
ENDBRANCH  32  33
ENDBRANCH  21  32
ENDBRANCH  15  18
ENDBRANCH  12  15
ENDBRANCH   7  12
ENDBRANCH   4   7
ENDBRANCH   1   4
BRANCH   1  37
ATOM     37  C   UNL A   1      26.585  18.770 -30.970  0.00  0.00    -0.029 C 
ATOM     38  H   UNL A   1      27.153  19.702 -30.839  0.00  0.00    +0.028 HD
ATOM     39  H   UNL A   1      25.618  18.975 -30.495  0.00  0.00    +0.028 HD
BRANCH  37  40
ATOM     40  C   UNL A   1      26.363  18.491 -32.553  0.00  0.00    +0.085 C 
BRANCH  40  41
ATOM     41  C   UNL A   1      26.872  17.032 -32.738  0.00  0.00    -0.024 A 
ATOM     42  C   UNL A   1      26.091  15.962 -32.249  0.00  0.00    -0.012 A 
ATOM     43  C   UNL A   1      27.991  16.686 -33.512  0.00  0.00    -0.053 A 
ATOM     44  C   UNL A   1      26.356  14.618 -32.559  0.00  0.00    +0.162 A 
ATOM     45  C   UNL A   1      28.313  15.348 -33.758  0.00  0.00    -0.016 A 
ATOM     46  C   UNL A   1      27.510  14.307 -33.284  0.00  0.00    +0.162 A 
ATOM     47  H   UNL A   1      25.218  16.189 -31.638  0.00  0.00    +0.066 HD
ATOM     48  H   UNL A   1      28.625  17.435 -33.976  0.00  0.00    +0.062 HD
ATOM     49  H   UNL A   1      29.192  15.113 -34.357  0.00  0.00    +0.066 HD
BRANCH  44  50
ATOM     50  O   UNL A   1      25.501  13.612 -32.190  0.00  0.00    -0.491 OA
BRANCH  50  51
ATOM     51  C   UNL A   1      24.453  13.342 -33.119  0.00  0.00    +0.079 C 
ATOM     52  H   UNL A   1      24.289  12.262 -33.140  0.00  0.00    +0.066 HD
ATOM     53  H   UNL A   1      23.517  13.812 -32.797  0.00  0.00    +0.066 HD
ATOM     54  H   UNL A   1      24.717  13.660 -34.136  0.00  0.00    +0.066 HD
ENDBRANCH  50  51
ENDBRANCH  44  50
BRANCH  46  55
ATOM     55  O   UNL A   1      27.927  13.067 -33.691  0.00  0.00    -0.491 OA
BRANCH  55  56
ATOM     56  C   UNL A   1      27.473  12.633 -34.966  0.00  0.00    +0.079 C 
ATOM     57  H   UNL A   1      27.475  13.443 -35.704  0.00  0.00    +0.066 HD
ATOM     58  H   UNL A   1      28.052  11.772 -35.311  0.00  0.00    +0.066 HD
ATOM     59  H   UNL A   1      26.438  12.297 -34.848  0.00  0.00    +0.066 HD
ENDBRANCH  55  56
ENDBRANCH  46  55
ENDBRANCH  40  41
BRANCH  40  60
ATOM     60  C   UNL A   1      24.839  18.712 -32.907  0.00  0.00    -0.024 C 
ATOM     61  H   UNL A   1      24.386  17.727 -33.076  0.00  0.00    +0.031 HD
BRANCH  60  62
ATOM     62  C   UNL A   1      24.572  19.525 -34.183  0.00  0.00    -0.061 C 
ATOM     63  H   UNL A   1      24.096  18.930 -34.971  0.00  0.00    +0.023 HD
ATOM     64  H   UNL A   1      23.882  20.347 -33.963  0.00  0.00    +0.023 HD
ATOM     65  H   UNL A   1      25.489  19.954 -34.593  0.00  0.00    +0.023 HD
ENDBRANCH  60  62
BRANCH  60  66
ATOM     66  C   UNL A   1      24.014  19.346 -31.772  0.00  0.00    -0.061 C 
ATOM     67  H   UNL A   1      23.038  18.865 -31.667  0.00  0.00    +0.023 HD
ATOM     68  H   UNL A   1      24.542  19.243 -30.816  0.00  0.00    +0.023 HD
ATOM     69  H   UNL A   1      23.862  20.417 -31.922  0.00  0.00    +0.023 HD
ENDBRANCH  60  66
ENDBRANCH  40  60
BRANCH  40  71
ATOM     70  N   UNL A   1      28.018  20.218 -33.973  0.00  0.00    -0.196 NA
ATOM     71  C   UNL A   1      27.267  19.434 -33.329  0.00  0.00    +0.074 C 
ENDBRANCH  40  71
ENDBRANCH  37  40
ENDBRANCH   1  37
TORSDOF 21
ENDMDL
MODEL 4
REMARK VINA RESULT:    -5.392     73.675     76.646
REMARK INTER + INTRA:         -12.621
REMARK INTER:                 -11.643
REMARK INTRA:                  -0.978
REMARK UNBOUND:                -1.712
REMARK  Name = 2520
REMARK  21 active torsions:
REMARK  status: ('A' for Active; 'I' for Inactive)
REMARK    1  A    between atoms: O_1  and  C_19
REMARK    2  A    between atoms: O_1  and  C_28
REMARK    3  A    between atoms: O_2  and  C_23
REMARK    4  A    between atoms: O_2  and  C_31
REMARK    5  A    between atoms: O_3  and  C_27
REMARK    6  A    between atoms: O_3  and  C_32
REMARK    7  A    between atoms: O_4  and  C_30
REMARK    8  A    between atoms: O_4  and  C_33
REMARK    9  A    between atoms: N_5  and  C_12
REMARK   10  A    between atoms: N_5  and  C_18
REMARK   11  A    between atoms: N_5  and  C_20
REMARK   12  A    between atoms: C_7  and  C_8
REMARK   13  A    between atoms: C_7  and  C_9
REMARK   14  A    between atoms: C_7  and  C_11
REMARK   15  A    between atoms: C_7  and  C_15
REMARK   16  A    between atoms: C_8  and  C_13
REMARK   17  A    between atoms: C_8  and  C_14
REMARK   18  A    between atoms: C_9  and  C_10
REMARK   19  A    between atoms: C_10  and  C_12
REMARK   20  A    between atoms: C_18  and  C_22
REMARK   21  A    between atoms: C_22  and  C_24
REMARK                            x       y       z     vdW  Elec       q    Type
REMARK                         _______ _______ _______ _____ _____    ______ ____
ROOT
ATOM      1  C   UNL A   1      27.402  17.589 -30.198  0.00  0.00    -0.038 C 
ATOM      2  H   UNL A   1      27.201  16.627 -30.678  0.00  0.00    +0.028 HD
ATOM      3  H   UNL A   1      28.483  17.752 -30.219  0.00  0.00    +0.028 HD
ENDROOT
BRANCH   1   4
ATOM      4  C   UNL A   1      26.966  17.478 -28.715  0.00  0.00    -0.001 C 
ATOM      5  H   UNL A   1      25.873  17.402 -28.637  0.00  0.00    +0.043 HD
ATOM      6  H   UNL A   1      27.369  16.529 -28.337  0.00  0.00    +0.043 HD
BRANCH   4   7
ATOM      7  N   UNL A   1      27.473  18.596 -27.863  0.00  0.00    -0.305 NA
BRANCH   7   8
ATOM      8  C   UNL A   1      28.776  18.239 -27.291  0.00  0.00    -0.013 C 
ATOM      9  H   UNL A   1      29.613  18.547 -27.927  0.00  0.00    +0.039 HD
ATOM     10  H   UNL A   1      28.908  18.698 -26.304  0.00  0.00    +0.039 HD
ATOM     11  H   UNL A   1      28.846  17.161 -27.114  0.00  0.00    +0.039 HD
ENDBRANCH   7   8
BRANCH   7  12
ATOM     12  C   UNL A   1      26.488  18.993 -26.816  0.00  0.00    +0.003 C 
ATOM     13  H   UNL A   1      26.593  18.284 -25.989  0.00  0.00    +0.043 HD
ATOM     14  H   UNL A   1      26.752  19.987 -26.435  0.00  0.00    +0.043 HD
BRANCH  12  15
ATOM     15  C   UNL A   1      24.978  19.021 -27.209  0.00  0.00    -0.015 C 
ATOM     16  H   UNL A   1      24.866  19.681 -28.081  0.00  0.00    +0.033 HD
ATOM     17  H   UNL A   1      24.659  18.017 -27.513  0.00  0.00    +0.033 HD
BRANCH  15  18
ATOM     18  C   UNL A   1      23.984  19.556 -26.179  0.00  0.00    -0.043 A 
ATOM     19  C   UNL A   1      22.590  19.420 -26.292  0.00  0.00    -0.013 A 
ATOM     20  C   UNL A   1      24.483  20.167 -25.020  0.00  0.00    -0.055 A 
ATOM     21  C   UNL A   1      21.713  19.770 -25.238  0.00  0.00    +0.162 A 
ATOM     22  C   UNL A   1      23.622  20.555 -23.989  0.00  0.00    -0.016 A 
ATOM     23  C   UNL A   1      22.241  20.337 -24.070  0.00  0.00    +0.162 A 
ATOM     24  H   UNL A   1      22.185  19.030 -27.218  0.00  0.00    +0.066 HD
ATOM     25  H   UNL A   1      25.552  20.332 -24.898  0.00  0.00    +0.062 HD
ATOM     26  H   UNL A   1      24.038  21.019 -23.095  0.00  0.00    +0.066 HD
BRANCH  23  27
ATOM     27  O   UNL A   1      21.577  20.738 -22.936  0.00  0.00    -0.491 OA
BRANCH  27  28
ATOM     28  C   UNL A   1      21.278  19.772 -21.936  0.00  0.00    +0.079 C 
ATOM     29  H   UNL A   1      22.131  19.114 -21.753  0.00  0.00    +0.066 HD
ATOM     30  H   UNL A   1      20.910  20.241 -21.016  0.00  0.00    +0.066 HD
ATOM     31  H   UNL A   1      20.470  19.138 -22.318  0.00  0.00    +0.066 HD
ENDBRANCH  27  28
ENDBRANCH  23  27
BRANCH  21  32
ATOM     32  O   UNL A   1      20.361  19.579 -25.299  0.00  0.00    -0.491 OA
BRANCH  32  33
ATOM     33  C   UNL A   1      19.615  20.165 -26.355  0.00  0.00    +0.079 C 
ATOM     34  H   UNL A   1      19.755  21.250 -26.358  0.00  0.00    +0.066 HD
ATOM     35  H   UNL A   1      19.848  19.729 -27.333  0.00  0.00    +0.066 HD
ATOM     36  H   UNL A   1      18.558  19.959 -26.164  0.00  0.00    +0.066 HD
ENDBRANCH  32  33
ENDBRANCH  21  32
ENDBRANCH  15  18
ENDBRANCH  12  15
ENDBRANCH   7  12
ENDBRANCH   4   7
ENDBRANCH   1   4
BRANCH   1  37
ATOM     37  C   UNL A   1      26.691  18.727 -31.005  0.00  0.00    -0.029 C 
ATOM     38  H   UNL A   1      27.295  19.640 -30.898  0.00  0.00    +0.028 HD
ATOM     39  H   UNL A   1      25.741  18.974 -30.515  0.00  0.00    +0.028 HD
BRANCH  37  40
ATOM     40  C   UNL A   1      26.428  18.434 -32.579  0.00  0.00    +0.085 C 
BRANCH  40  41
ATOM     41  C   UNL A   1      26.928  16.971 -32.763  0.00  0.00    -0.024 A 
ATOM     42  C   UNL A   1      26.143  15.908 -32.267  0.00  0.00    -0.012 A 
ATOM     43  C   UNL A   1      28.041  16.617 -33.541  0.00  0.00    -0.053 A 
ATOM     44  C   UNL A   1      26.399  14.561 -32.575  0.00  0.00    +0.162 A 
ATOM     45  C   UNL A   1      28.355  15.277 -33.785  0.00  0.00    -0.016 A 
ATOM     46  C   UNL A   1      27.548  14.241 -33.305  0.00  0.00    +0.162 A 
ATOM     47  H   UNL A   1      25.274  16.141 -31.653  0.00  0.00    +0.066 HD
ATOM     48  H   UNL A   1      28.678  17.362 -34.010  0.00  0.00    +0.062 HD
ATOM     49  H   UNL A   1      29.230  15.035 -34.388  0.00  0.00    +0.066 HD
BRANCH  44  50
ATOM     50  O   UNL A   1      25.540  13.561 -32.200  0.00  0.00    -0.491 OA
BRANCH  50  51
ATOM     51  C   UNL A   1      24.472  13.312 -33.111  0.00  0.00    +0.079 C 
ATOM     52  H   UNL A   1      24.786  12.520 -33.794  0.00  0.00    +0.066 HD
ATOM     53  H   UNL A   1      23.582  12.957 -32.580  0.00  0.00    +0.066 HD
ATOM     54  H   UNL A   1      24.235  14.199 -33.715  0.00  0.00    +0.066 HD
ENDBRANCH  50  51
ENDBRANCH  44  50
BRANCH  46  55
ATOM     55  O   UNL A   1      27.956  12.998 -33.710  0.00  0.00    -0.491 OA
BRANCH  55  56
ATOM     56  C   UNL A   1      27.531  12.582 -35.002  0.00  0.00    +0.079 C 
ATOM     57  H   UNL A   1      26.929  11.667 -34.966  0.00  0.00    +0.066 HD
ATOM     58  H   UNL A   1      27.004  13.391 -35.515  0.00  0.00    +0.066 HD
ATOM     59  H   UNL A   1      28.430  12.364 -35.587  0.00  0.00    +0.066 HD
ENDBRANCH  55  56
ENDBRANCH  46  55
ENDBRANCH  40  41
BRANCH  40  60
ATOM     60  C   UNL A   1      24.897  18.657 -32.898  0.00  0.00    -0.024 C 
ATOM     61  H   UNL A   1      24.434  17.671 -33.033  0.00  0.00    +0.031 HD
BRANCH  60  62
ATOM     62  C   UNL A   1      24.601  19.443 -34.183  0.00  0.00    -0.061 C 
ATOM     63  H   UNL A   1      25.404  20.141 -34.447  0.00  0.00    +0.023 HD
ATOM     64  H   UNL A   1      24.507  18.753 -35.029  0.00  0.00    +0.023 HD
ATOM     65  H   UNL A   1      23.672  20.012 -34.109  0.00  0.00    +0.023 HD
ENDBRANCH  60  62
BRANCH  60  66
ATOM     66  C   UNL A   1      24.106  19.319 -31.755  0.00  0.00    -0.061 C 
ATOM     67  H   UNL A   1      24.771  19.800 -31.031  0.00  0.00    +0.023 HD
ATOM     68  H   UNL A   1      23.434  20.089 -32.153  0.00  0.00    +0.023 HD
ATOM     69  H   UNL A   1      23.471  18.605 -31.226  0.00  0.00    +0.023 HD
ENDBRANCH  60  66
ENDBRANCH  40  60
BRANCH  40  71
ATOM     70  N   UNL A   1      28.053  20.141 -34.056  0.00  0.00    -0.196 NA
ATOM     71  C   UNL A   1      27.316  19.367 -33.386  0.00  0.00    +0.074 C 
ENDBRANCH  40  71
ENDBRANCH  37  40
ENDBRANCH   1  37
TORSDOF 21
ENDMDL
MODEL 5
REMARK VINA RESULT:    -5.343     74.962     78.471
REMARK INTER + INTRA:         -12.522
REMARK INTER:                 -10.274
REMARK INTRA:                  -2.248
REMARK UNBOUND:                -1.712
REMARK  Name = 2520
REMARK  21 active torsions:
REMARK  status: ('A' for Active; 'I' for Inactive)
REMARK    1  A    between atoms: O_1  and  C_19
REMARK    2  A    between atoms: O_1  and  C_28
REMARK    3  A    between atoms: O_2  and  C_23
REMARK    4  A    between atoms: O_2  and  C_31
REMARK    5  A    between atoms: O_3  and  C_27
REMARK    6  A    between atoms: O_3  and  C_32
REMARK    7  A    between atoms: O_4  and  C_30
REMARK    8  A    between atoms: O_4  and  C_33
REMARK    9  A    between atoms: N_5  and  C_12
REMARK   10  A    between atoms: N_5  and  C_18
REMARK   11  A    between atoms: N_5  and  C_20
REMARK   12  A    between atoms: C_7  and  C_8
REMARK   13  A    between atoms: C_7  and  C_9
REMARK   14  A    between atoms: C_7  and  C_11
REMARK   15  A    between atoms: C_7  and  C_15
REMARK   16  A    between atoms: C_8  and  C_13
REMARK   17  A    between atoms: C_8  and  C_14
REMARK   18  A    between atoms: C_9  and  C_10
REMARK   19  A    between atoms: C_10  and  C_12
REMARK   20  A    between atoms: C_18  and  C_22
REMARK   21  A    between atoms: C_22  and  C_24
REMARK                            x       y       z     vdW  Elec       q    Type
REMARK                         _______ _______ _______ _____ _____    ______ ____
ROOT
ATOM      1  C   UNL A   1      37.203  20.054 -12.686  0.00  0.00    -0.038 C 
ATOM      2  H   UNL A   1      36.599  20.966 -12.724  0.00  0.00    +0.028 HD
ATOM      3  H   UNL A   1      37.209  19.704 -11.651  0.00  0.00    +0.028 HD
ENDROOT
BRANCH   1   4
ATOM      4  C   UNL A   1      38.656  20.434 -13.071  0.00  0.00    -0.001 C 
ATOM      5  H   UNL A   1      39.096  19.668 -13.723  0.00  0.00    +0.043 HD
ATOM      6  H   UNL A   1      38.595  21.352 -13.670  0.00  0.00    +0.043 HD
BRANCH   4   7
ATOM      7  N   UNL A   1      39.535  20.681 -11.888  0.00  0.00    -0.305 NA
BRANCH   7   8
ATOM      8  C   UNL A   1      38.930  21.693 -11.016  0.00  0.00    -0.013 C 
ATOM      9  H   UNL A   1      37.949  21.387 -10.634  0.00  0.00    +0.039 HD
ATOM     10  H   UNL A   1      39.580  21.911 -10.160  0.00  0.00    +0.039 HD
ATOM     11  H   UNL A   1      38.821  22.649 -11.540  0.00  0.00    +0.039 HD
ENDBRANCH   7   8
BRANCH   7  12
ATOM     12  C   UNL A   1      40.925  21.043 -12.291  0.00  0.00    +0.003 C 
ATOM     13  H   UNL A   1      40.898  22.078 -12.647  0.00  0.00    +0.043 HD
ATOM     14  H   UNL A   1      41.572  21.014 -11.406  0.00  0.00    +0.043 HD
BRANCH  12  15
ATOM     15  C   UNL A   1      41.607  20.190 -13.406  0.00  0.00    -0.015 C 
ATOM     16  H   UNL A   1      42.588  19.865 -13.033  0.00  0.00    +0.033 HD
ATOM     17  H   UNL A   1      41.011  19.289 -13.594  0.00  0.00    +0.033 HD
BRANCH  15  18
ATOM     18  C   UNL A   1      41.896  20.869 -14.744  0.00  0.00    -0.043 A 
ATOM     19  C   UNL A   1      43.003  21.704 -14.975  0.00  0.00    -0.013 A 
ATOM     20  C   UNL A   1      41.049  20.603 -15.828  0.00  0.00    -0.055 A 
ATOM     21  C   UNL A   1      43.334  22.172 -16.268  0.00  0.00    +0.162 A 
ATOM     22  C   UNL A   1      41.344  21.094 -17.104  0.00  0.00    -0.016 A 
ATOM     23  C   UNL A   1      42.496  21.853 -17.346  0.00  0.00    +0.162 A 
ATOM     24  H   UNL A   1      43.617  21.989 -14.129  0.00  0.00    +0.066 HD
ATOM     25  H   UNL A   1      40.156  19.994 -15.697  0.00  0.00    +0.062 HD
ATOM     26  H   UNL A   1      40.673  20.865 -17.931  0.00  0.00    +0.066 HD
BRANCH  23  27
ATOM     27  O   UNL A   1      42.633  22.194 -18.669  0.00  0.00    -0.491 OA
BRANCH  27  28
ATOM     28  C   UNL A   1      41.464  22.429 -19.444  0.00  0.00    +0.079 C 
ATOM     29  H   UNL A   1      40.563  22.129 -18.902  0.00  0.00    +0.066 HD
ATOM     30  H   UNL A   1      41.412  23.465 -19.797  0.00  0.00    +0.066 HD
ATOM     31  H   UNL A   1      41.521  21.790 -20.332  0.00  0.00    +0.066 HD
ENDBRANCH  27  28
ENDBRANCH  23  27
BRANCH  21  32
ATOM     32  O   UNL A   1      44.446  22.924 -16.526  0.00  0.00    -0.491 OA
BRANCH  32  33
ATOM     33  C   UNL A   1      44.513  24.262 -16.058  0.00  0.00    +0.079 C 
ATOM     34  H   UNL A   1      45.182  24.851 -16.694  0.00  0.00    +0.066 HD
ATOM     35  H   UNL A   1      43.528  24.733 -15.970  0.00  0.00    +0.066 HD
ATOM     36  H   UNL A   1      44.939  24.236 -15.051  0.00  0.00    +0.066 HD
ENDBRANCH  32  33
ENDBRANCH  21  32
ENDBRANCH  15  18
ENDBRANCH  12  15
ENDBRANCH   7  12
ENDBRANCH   4   7
ENDBRANCH   1   4
BRANCH   1  37
ATOM     37  C   UNL A   1      36.549  18.963 -13.599  0.00  0.00    -0.029 C 
ATOM     38  H   UNL A   1      36.188  18.155 -12.947  0.00  0.00    +0.028 HD
ATOM     39  H   UNL A   1      37.330  18.490 -14.207  0.00  0.00    +0.028 HD
BRANCH  37  40
ATOM     40  C   UNL A   1      35.341  19.462 -14.560  0.00  0.00    +0.085 C 
BRANCH  40  41
ATOM     41  C   UNL A   1      36.046  19.721 -15.924  0.00  0.00    -0.024 A 
ATOM     42  C   UNL A   1      35.576  20.760 -16.756  0.00  0.00    -0.012 A 
ATOM     43  C   UNL A   1      37.235  19.091 -16.321  0.00  0.00    -0.053 A 
ATOM     44  C   UNL A   1      36.275  21.207 -17.889  0.00  0.00    +0.162 A 
ATOM     45  C   UNL A   1      37.897  19.470 -17.493  0.00  0.00    -0.016 A 
ATOM     46  C   UNL A   1      37.426  20.519 -18.287  0.00  0.00    +0.162 A 
ATOM     47  H   UNL A   1      34.652  21.270 -16.485  0.00  0.00    +0.066 HD
ATOM     48  H   UNL A   1      37.705  18.315 -15.723  0.00  0.00    +0.062 HD
ATOM     49  H   UNL A   1      38.814  18.957 -17.777  0.00  0.00    +0.066 HD
BRANCH  44  50
ATOM     50  O   UNL A   1      35.872  22.310 -18.596  0.00  0.00    -0.491 OA
BRANCH  50  51
ATOM     51  C   UNL A   1      34.804  22.080 -19.512  0.00  0.00    +0.079 C 
ATOM     52  H   UNL A   1      34.179  21.278 -19.111  0.00  0.00    +0.066 HD
ATOM     53  H   UNL A   1      34.174  22.971 -19.608  0.00  0.00    +0.066 HD
ATOM     54  H   UNL A   1      35.171  21.756 -20.495  0.00  0.00    +0.066 HD
ENDBRANCH  50  51
ENDBRANCH  44  50
BRANCH  46  55
ATOM     55  O   UNL A   1      38.243  20.811 -19.348  0.00  0.00    -0.491 OA
BRANCH  55  56
ATOM     56  C   UNL A   1      37.902  20.215 -20.593  0.00  0.00    +0.079 C 
ATOM     57  H   UNL A   1      37.221  19.365 -20.473  0.00  0.00    +0.066 HD
ATOM     58  H   UNL A   1      37.497  20.961 -21.281  0.00  0.00    +0.066 HD
ATOM     59  H   UNL A   1      38.827  19.837 -21.039  0.00  0.00    +0.066 HD
ENDBRANCH  55  56
ENDBRANCH  46  55
ENDBRANCH  40  41
BRANCH  40  60
ATOM     60  C   UNL A   1      34.217  18.353 -14.595  0.00  0.00    -0.024 C 
ATOM     61  H   UNL A   1      34.342  17.774 -15.519  0.00  0.00    +0.031 HD
BRANCH  60  62
ATOM     62  C   UNL A   1      32.774  18.879 -14.619  0.00  0.00    -0.061 C 
ATOM     63  H   UNL A   1      32.034  18.092 -14.434  0.00  0.00    +0.023 HD
ATOM     64  H   UNL A   1      32.635  19.621 -13.824  0.00  0.00    +0.023 HD
ATOM     65  H   UNL A   1      32.529  19.355 -15.570  0.00  0.00    +0.023 HD
ENDBRANCH  60  62
BRANCH  60  66
ATOM     66  C   UNL A   1      34.316  17.320 -13.456  0.00  0.00    -0.061 C 
ATOM     67  H   UNL A   1      33.649  16.470 -13.624  0.00  0.00    +0.023 HD
ATOM     68  H   UNL A   1      35.339  16.933 -13.382  0.00  0.00    +0.023 HD
ATOM     69  H   UNL A   1      34.085  17.758 -12.482  0.00  0.00    +0.023 HD
ENDBRANCH  60  66
ENDBRANCH  40  60
BRANCH  40  71
ATOM     70  N   UNL A   1      34.384  21.875 -13.560  0.00  0.00    -0.196 NA
ATOM     71  C   UNL A   1      34.818  20.781 -14.014  0.00  0.00    +0.074 C 
ENDBRANCH  40  71
ENDBRANCH  37  40
ENDBRANCH   1  37
TORSDOF 21
ENDMDL
MODEL 6
REMARK VINA RESULT:    -5.287     35.070     37.646
REMARK INTER + INTRA:         -12.409
REMARK INTER:                 -10.003
REMARK INTRA:                  -2.406
REMARK UNBOUND:                -1.712
REMARK  Name = 2520
REMARK  21 active torsions:
REMARK  status: ('A' for Active; 'I' for Inactive)
REMARK    1  A    between atoms: O_1  and  C_19
REMARK    2  A    between atoms: O_1  and  C_28
REMARK    3  A    between atoms: O_2  and  C_23
REMARK    4  A    between atoms: O_2  and  C_31
REMARK    5  A    between atoms: O_3  and  C_27
REMARK    6  A    between atoms: O_3  and  C_32
REMARK    7  A    between atoms: O_4  and  C_30
REMARK    8  A    between atoms: O_4  and  C_33
REMARK    9  A    between atoms: N_5  and  C_12
REMARK   10  A    between atoms: N_5  and  C_18
REMARK   11  A    between atoms: N_5  and  C_20
REMARK   12  A    between atoms: C_7  and  C_8
REMARK   13  A    between atoms: C_7  and  C_9
REMARK   14  A    between atoms: C_7  and  C_11
REMARK   15  A    between atoms: C_7  and  C_15
REMARK   16  A    between atoms: C_8  and  C_13
REMARK   17  A    between atoms: C_8  and  C_14
REMARK   18  A    between atoms: C_9  and  C_10
REMARK   19  A    between atoms: C_10  and  C_12
REMARK   20  A    between atoms: C_18  and  C_22
REMARK   21  A    between atoms: C_22  and  C_24
REMARK                            x       y       z     vdW  Elec       q    Type
REMARK                         _______ _______ _______ _____ _____    ______ ____
ROOT
ATOM      1  C   UNL A   1     -18.589  10.744 -10.859  0.00  0.00    -0.038 C 
ATOM      2  H   UNL A   1     -18.778  10.327 -11.853  0.00  0.00    +0.028 HD
ATOM      3  H   UNL A   1     -19.508  11.232 -10.524  0.00  0.00    +0.028 HD
ENDROOT
BRANCH   1   4
ATOM      4  C   UNL A   1     -17.496  11.834 -11.005  0.00  0.00    -0.001 C 
ATOM      5  H   UNL A   1     -16.494  11.387 -10.950  0.00  0.00    +0.043 HD
ATOM      6  H   UNL A   1     -17.594  12.246 -12.018  0.00  0.00    +0.043 HD
BRANCH   4   7
ATOM      7  N   UNL A   1     -17.629  12.942 -10.013  0.00  0.00    -0.305 NA
BRANCH   7   8
ATOM      8  C   UNL A   1     -17.341  14.229 -10.656  0.00  0.00    -0.013 C 
ATOM      9  H   UNL A   1     -16.766  14.116 -11.583  0.00  0.00    +0.039 HD
ATOM     10  H   UNL A   1     -18.268  14.765 -10.891  0.00  0.00    +0.039 HD
ATOM     11  H   UNL A   1     -16.793  14.893  -9.980  0.00  0.00    +0.039 HD
ENDBRANCH   7   8
BRANCH   7  12
ATOM     12  C   UNL A   1     -16.784  12.716  -8.804  0.00  0.00    +0.003 C 
ATOM     13  H   UNL A   1     -16.013  11.990  -9.082  0.00  0.00    +0.043 HD
ATOM     14  H   UNL A   1     -16.278  13.653  -8.541  0.00  0.00    +0.043 HD
BRANCH  12  15
ATOM     15  C   UNL A   1     -17.483  12.177  -7.517  0.00  0.00    -0.015 C 
ATOM     16  H   UNL A   1     -17.431  11.079  -7.537  0.00  0.00    +0.033 HD
ATOM     17  H   UNL A   1     -16.934  12.516  -6.631  0.00  0.00    +0.033 HD
BRANCH  15  18
ATOM     18  C   UNL A   1     -18.964  12.499  -7.324  0.00  0.00    -0.043 A 
ATOM     19  C   UNL A   1     -19.455  13.784  -7.041  0.00  0.00    -0.013 A 
ATOM     20  C   UNL A   1     -19.902  11.471  -7.497  0.00  0.00    -0.055 A 
ATOM     21  C   UNL A   1     -20.840  14.078  -7.043  0.00  0.00    +0.162 A 
ATOM     22  C   UNL A   1     -21.274  11.741  -7.460  0.00  0.00    -0.016 A 
ATOM     23  C   UNL A   1     -21.758  13.041  -7.264  0.00  0.00    +0.162 A 
ATOM     24  H   UNL A   1     -18.743  14.570  -6.820  0.00  0.00    +0.066 HD
ATOM     25  H   UNL A   1     -19.576  10.449  -7.680  0.00  0.00    +0.062 HD
ATOM     26  H   UNL A   1     -21.981  10.925  -7.606  0.00  0.00    +0.066 HD
BRANCH  23  27
ATOM     27  O   UNL A   1     -23.128  13.105  -7.314  0.00  0.00    -0.491 OA
BRANCH  27  28
ATOM     28  C   UNL A   1     -23.829  12.208  -8.168  0.00  0.00    +0.079 C 
ATOM     29  H   UNL A   1     -24.632  11.698  -7.631  0.00  0.00    +0.066 HD
ATOM     30  H   UNL A   1     -24.186  12.708  -9.076  0.00  0.00    +0.066 HD
ATOM     31  H   UNL A   1     -23.123  11.433  -8.485  0.00  0.00    +0.066 HD
ENDBRANCH  27  28
ENDBRANCH  23  27
BRANCH  21  32
ATOM     32  O   UNL A   1     -21.336  15.335  -6.842  0.00  0.00    -0.491 OA
BRANCH  32  33
ATOM     33  C   UNL A   1     -21.387  15.869  -5.528  0.00  0.00    +0.079 C 
ATOM     34  H   UNL A   1     -22.245  15.457  -4.988  0.00  0.00    +0.066 HD
ATOM     35  H   UNL A   1     -20.455  15.720  -4.972  0.00  0.00    +0.066 HD
ATOM     36  H   UNL A   1     -21.529  16.949  -5.618  0.00  0.00    +0.066 HD
ENDBRANCH  32  33
ENDBRANCH  21  32
ENDBRANCH  15  18
ENDBRANCH  12  15
ENDBRANCH   7  12
ENDBRANCH   4   7
ENDBRANCH   1   4
BRANCH   1  37
ATOM     37  C   UNL A   1     -18.228   9.584  -9.872  0.00  0.00    -0.029 C 
ATOM     38  H   UNL A   1     -18.406   9.948  -8.850  0.00  0.00    +0.028 HD
ATOM     39  H   UNL A   1     -17.146   9.406  -9.909  0.00  0.00    +0.028 HD
BRANCH  37  40
ATOM     40  C   UNL A   1     -19.016   8.183 -10.091  0.00  0.00    +0.085 C 
BRANCH  40  41
ATOM     41  C   UNL A   1     -18.184   7.470 -11.197  0.00  0.00    -0.024 A 
ATOM     42  C   UNL A   1     -18.858   6.808 -12.247  0.00  0.00    -0.012 A 
ATOM     43  C   UNL A   1     -16.790   7.573 -11.316  0.00  0.00    -0.053 A 
ATOM     44  C   UNL A   1     -18.203   6.330 -13.394  0.00  0.00    +0.162 A 
ATOM     45  C   UNL A   1     -16.116   7.028 -12.414  0.00  0.00    -0.016 A 
ATOM     46  C   UNL A   1     -16.808   6.400 -13.453  0.00  0.00    +0.162 A 
ATOM     47  H   UNL A   1     -19.941   6.700 -12.188  0.00  0.00    +0.066 HD
ATOM     48  H   UNL A   1     -16.186   8.108 -10.589  0.00  0.00    +0.062 HD
ATOM     49  H   UNL A   1     -15.032   7.120 -12.474  0.00  0.00    +0.066 HD
BRANCH  44  50
ATOM     50  O   UNL A   1     -18.898   5.822 -14.460  0.00  0.00    -0.491 OA
BRANCH  50  51
ATOM     51  C   UNL A   1     -20.316   5.825 -14.311  0.00  0.00    +0.079 C 
ATOM     52  H   UNL A   1     -20.619   4.846 -13.930  0.00  0.00    +0.066 HD
ATOM     53  H   UNL A   1     -20.629   6.576 -13.579  0.00  0.00    +0.066 HD
ATOM     54  H   UNL A   1     -20.827   5.981 -15.271  0.00  0.00    +0.066 HD
ENDBRANCH  50  51
ENDBRANCH  44  50
BRANCH  46  55
ATOM     55  O   UNL A   1     -15.999   6.002 -14.485  0.00  0.00    -0.491 OA
BRANCH  55  56
ATOM     56  C   UNL A   1     -15.114   6.983 -15.011  0.00  0.00    +0.079 C 
ATOM     57  H   UNL A   1     -15.121   7.003 -16.106  0.00  0.00    +0.066 HD
ATOM     58  H   UNL A   1     -15.332   7.967 -14.588  0.00  0.00    +0.066 HD
ATOM     59  H   UNL A   1     -14.102   6.714 -14.692  0.00  0.00    +0.066 HD
ENDBRANCH  55  56
ENDBRANCH  46  55
ENDBRANCH  40  41
BRANCH  40  60
ATOM     60  C   UNL A   1     -19.090   7.411  -8.715  0.00  0.00    -0.024 C 
ATOM     61  H   UNL A   1     -18.555   6.460  -8.832  0.00  0.00    +0.031 HD
BRANCH  60  62
ATOM     62  C   UNL A   1     -20.505   7.045  -8.243  0.00  0.00    -0.061 C 
ATOM     63  H   UNL A   1     -21.282   7.649  -8.726  0.00  0.00    +0.023 HD
ATOM     64  H   UNL A   1     -20.725   6.003  -8.500  0.00  0.00    +0.023 HD
ATOM     65  H   UNL A   1     -20.616   7.156  -7.162  0.00  0.00    +0.023 HD
ENDBRANCH  60  62
BRANCH  60  66
ATOM     66  C   UNL A   1     -18.383   8.130  -7.551  0.00  0.00    -0.061 C 
ATOM     67  H   UNL A   1     -18.243   7.466  -6.694  0.00  0.00    +0.023 HD
ATOM     68  H   UNL A   1     -17.393   8.481  -7.867  0.00  0.00    +0.023 HD
ATOM     69  H   UNL A   1     -18.929   9.017  -7.222  0.00  0.00    +0.023 HD
ENDBRANCH  60  66
ENDBRANCH  40  60
BRANCH  40  71
ATOM     70  N   UNL A   1     -21.545   8.765 -11.091  0.00  0.00    -0.196 NA
ATOM     71  C   UNL A   1     -20.398   8.501 -10.638  0.00  0.00    +0.074 C 
ENDBRANCH  40  71
ENDBRANCH  37  40
ENDBRANCH   1  37
TORSDOF 21
ENDMDL
MODEL 7
REMARK VINA RESULT:    -5.283     35.536     37.518
REMARK INTER + INTRA:         -12.399
REMARK INTER:                 -10.570
REMARK INTRA:                  -1.829
REMARK UNBOUND:                -1.712
REMARK  Name = 2520
REMARK  21 active torsions:
REMARK  status: ('A' for Active; 'I' for Inactive)
REMARK    1  A    between atoms: O_1  and  C_19
REMARK    2  A    between atoms: O_1  and  C_28
REMARK    3  A    between atoms: O_2  and  C_23
REMARK    4  A    between atoms: O_2  and  C_31
REMARK    5  A    between atoms: O_3  and  C_27
REMARK    6  A    between atoms: O_3  and  C_32
REMARK    7  A    between atoms: O_4  and  C_30
REMARK    8  A    between atoms: O_4  and  C_33
REMARK    9  A    between atoms: N_5  and  C_12
REMARK   10  A    between atoms: N_5  and  C_18
REMARK   11  A    between atoms: N_5  and  C_20
REMARK   12  A    between atoms: C_7  and  C_8
REMARK   13  A    between atoms: C_7  and  C_9
REMARK   14  A    between atoms: C_7  and  C_11
REMARK   15  A    between atoms: C_7  and  C_15
REMARK   16  A    between atoms: C_8  and  C_13
REMARK   17  A    between atoms: C_8  and  C_14
REMARK   18  A    between atoms: C_9  and  C_10
REMARK   19  A    between atoms: C_10  and  C_12
REMARK   20  A    between atoms: C_18  and  C_22
REMARK   21  A    between atoms: C_22  and  C_24
REMARK                            x       y       z     vdW  Elec       q    Type
REMARK                         _______ _______ _______ _____ _____    ______ ____
ROOT
ATOM      1  C   UNL A   1     -21.633   8.016  -9.054  0.00  0.00    -0.038 C 
ATOM      2  H   UNL A   1     -21.455   8.413 -10.058  0.00  0.00    +0.028 HD
ATOM      3  H   UNL A   1     -22.364   7.208  -9.141  0.00  0.00    +0.028 HD
ENDROOT
BRANCH   1   4
ATOM      4  C   UNL A   1     -22.270   9.146  -8.205  0.00  0.00    -0.001 C 
ATOM      5  H   UNL A   1     -22.823   8.726  -7.354  0.00  0.00    +0.043 HD
ATOM      6  H   UNL A   1     -21.441   9.725  -7.777  0.00  0.00    +0.043 HD
BRANCH   4   7
ATOM      7  N   UNL A   1     -23.145  10.060  -8.998  0.00  0.00    -0.305 NA
BRANCH   7   8
ATOM      8  C   UNL A   1     -22.694  10.100 -10.394  0.00  0.00    -0.013 C 
ATOM      9  H   UNL A   1     -22.894  11.065 -10.873  0.00  0.00    +0.039 HD
ATOM     10  H   UNL A   1     -21.619   9.897 -10.464  0.00  0.00    +0.039 HD
ATOM     11  H   UNL A   1     -23.170   9.309 -10.984  0.00  0.00    +0.039 HD
ENDBRANCH   7   8
BRANCH   7  12
ATOM     12  C   UNL A   1     -23.225  11.422  -8.394  0.00  0.00    +0.003 C 
ATOM     13  H   UNL A   1     -23.201  12.142  -9.219  0.00  0.00    +0.043 HD
ATOM     14  H   UNL A   1     -24.191  11.531  -7.886  0.00  0.00    +0.043 HD
BRANCH  12  15
ATOM     15  C   UNL A   1     -22.109  11.839  -7.387  0.00  0.00    -0.015 C 
ATOM     16  H   UNL A   1     -22.580  12.408  -6.574  0.00  0.00    +0.033 HD
ATOM     17  H   UNL A   1     -21.662  10.941  -6.942  0.00  0.00    +0.033 HD
BRANCH  15  18
ATOM     18  C   UNL A   1     -20.986  12.738  -7.901  0.00  0.00    -0.043 A 
ATOM     19  C   UNL A   1     -20.877  13.170  -9.233  0.00  0.00    -0.013 A 
ATOM     20  C   UNL A   1     -20.037  13.215  -6.986  0.00  0.00    -0.055 A 
ATOM     21  C   UNL A   1     -19.928  14.141  -9.634  0.00  0.00    +0.162 A 
ATOM     22  C   UNL A   1     -19.068  14.144  -7.379  0.00  0.00    -0.016 A 
ATOM     23  C   UNL A   1     -19.018  14.637  -8.689  0.00  0.00    +0.162 A 
ATOM     24  H   UNL A   1     -21.548  12.744  -9.969  0.00  0.00    +0.066 HD
ATOM     25  H   UNL A   1     -20.051  12.883  -5.949  0.00  0.00    +0.062 HD
ATOM     26  H   UNL A   1     -18.348  14.505  -6.646  0.00  0.00    +0.066 HD
BRANCH  23  27
ATOM     27  O   UNL A   1     -18.032  15.577  -8.861  0.00  0.00    -0.491 OA
BRANCH  27  28
ATOM     28  C   UNL A   1     -18.265  16.908  -8.416  0.00  0.00    +0.079 C 
ATOM     29  H   UNL A   1     -17.366  17.522  -8.518  0.00  0.00    +0.066 HD
ATOM     30  H   UNL A   1     -19.133  17.355  -8.911  0.00  0.00    +0.066 HD
ATOM     31  H   UNL A   1     -18.493  16.865  -7.345  0.00  0.00    +0.066 HD
ENDBRANCH  27  28
ENDBRANCH  23  27
BRANCH  21  32
ATOM     32  O   UNL A   1     -19.853  14.628 -10.908  0.00  0.00    -0.491 OA
BRANCH  32  33
ATOM     33  C   UNL A   1     -20.664  15.728 -11.289  0.00  0.00    +0.079 C 
ATOM     34  H   UNL A   1     -21.090  16.207 -10.402  0.00  0.00    +0.066 HD
ATOM     35  H   UNL A   1     -20.133  16.452 -11.917  0.00  0.00    +0.066 HD
ATOM     36  H   UNL A   1     -21.488  15.336 -11.891  0.00  0.00    +0.066 HD
ENDBRANCH  32  33
ENDBRANCH  21  32
ENDBRANCH  15  18
ENDBRANCH  12  15
ENDBRANCH   7  12
ENDBRANCH   4   7
ENDBRANCH   1   4
BRANCH   1  37
ATOM     37  C   UNL A   1     -20.293   7.444  -8.481  0.00  0.00    -0.029 C 
ATOM     38  H   UNL A   1     -20.276   6.364  -8.687  0.00  0.00    +0.028 HD
ATOM     39  H   UNL A   1     -20.316   7.508  -7.386  0.00  0.00    +0.028 HD
BRANCH  37  40
ATOM     40  C   UNL A   1     -18.927   8.121  -9.036  0.00  0.00    +0.085 C 
BRANCH  40  41
ATOM     41  C   UNL A   1     -18.860   7.640 -10.515  0.00  0.00    -0.024 A 
ATOM     42  C   UNL A   1     -17.599   7.403 -11.105  0.00  0.00    -0.012 A 
ATOM     43  C   UNL A   1     -19.983   7.264 -11.267  0.00  0.00    -0.053 A 
ATOM     44  C   UNL A   1     -17.444   6.765 -12.347  0.00  0.00    +0.162 A 
ATOM     45  C   UNL A   1     -19.845   6.704 -12.541  0.00  0.00    -0.016 A 
ATOM     46  C   UNL A   1     -18.585   6.456 -13.094  0.00  0.00    +0.162 A 
ATOM     47  H   UNL A   1     -16.702   7.688 -10.556  0.00  0.00    +0.066 HD
ATOM     48  H   UNL A   1     -20.994   7.357 -10.881  0.00  0.00    +0.062 HD
ATOM     49  H   UNL A   1     -20.737   6.428 -13.102  0.00  0.00    +0.066 HD
BRANCH  44  50
ATOM     50  O   UNL A   1     -16.210   6.419 -12.830  0.00  0.00    -0.491 OA
BRANCH  50  51
ATOM     51  C   UNL A   1     -15.284   7.498 -12.944  0.00  0.00    +0.079 C 
ATOM     52  H   UNL A   1     -15.854   8.425 -13.042  0.00  0.00    +0.066 HD
ATOM     53  H   UNL A   1     -14.670   7.582 -12.040  0.00  0.00    +0.066 HD
ATOM     54  H   UNL A   1     -14.650   7.400 -13.835  0.00  0.00    +0.066 HD
ENDBRANCH  50  51
ENDBRANCH  44  50
BRANCH  46  55
ATOM     55  O   UNL A   1     -18.637   5.826 -14.310  0.00  0.00    -0.491 OA
BRANCH  55  56
ATOM     56  C   UNL A   1     -18.966   4.443 -14.293  0.00  0.00    +0.079 C 
ATOM     57  H   UNL A   1     -19.745   4.211 -13.559  0.00  0.00    +0.066 HD
ATOM     58  H   UNL A   1     -19.239   4.097 -15.293  0.00  0.00    +0.066 HD
ATOM     59  H   UNL A   1     -18.063   3.896 -14.001  0.00  0.00    +0.066 HD
ENDBRANCH  55  56
ENDBRANCH  46  55
ENDBRANCH  40  41
BRANCH  40  60
ATOM     60  C   UNL A   1     -19.016   9.688  -8.851  0.00  0.00    -0.024 C 
ATOM     61  H   UNL A   1     -20.073   9.952  -8.714  0.00  0.00    +0.031 HD
BRANCH  60  62
ATOM     62  C   UNL A   1     -18.524  10.519 -10.045  0.00  0.00    -0.061 C 
ATOM     63  H   UNL A   1     -19.272  10.596 -10.843  0.00  0.00    +0.023 HD
ATOM     64  H   UNL A   1     -18.316  11.546  -9.723  0.00  0.00    +0.023 HD
ATOM     65  H   UNL A   1     -17.610  10.110 -10.479  0.00  0.00    +0.023 HD
ENDBRANCH  60  62
BRANCH  60  66
ATOM     66  C   UNL A   1     -18.302  10.215  -7.592  0.00  0.00    -0.061 C 
ATOM     67  H   UNL A   1     -19.003  10.692  -6.902  0.00  0.00    +0.023 HD
ATOM     68  H   UNL A   1     -17.816   9.390  -7.057  0.00  0.00    +0.023 HD
ATOM     69  H   UNL A   1     -17.511  10.927  -7.836  0.00  0.00    +0.023 HD
ENDBRANCH  60  66
ENDBRANCH  40  60
BRANCH  40  71
ATOM     70  N   UNL A   1     -16.790   7.031  -7.628  0.00  0.00    -0.196 NA
ATOM     71  C   UNL A   1     -17.760   7.526  -8.266  0.00  0.00    +0.074 C 
ENDBRANCH  40  71
ENDBRANCH  37  40
ENDBRANCH   1  37
TORSDOF 21
ENDMDL
MODEL 8
REMARK VINA RESULT:    -5.223     19.344     21.973
REMARK INTER + INTRA:         -12.279
REMARK INTER:                  -9.493
REMARK INTRA:                  -2.786
REMARK UNBOUND:                -1.712
REMARK  Name = 2520
REMARK  21 active torsions:
REMARK  status: ('A' for Active; 'I' for Inactive)
REMARK    1  A    between atoms: O_1  and  C_19
REMARK    2  A    between atoms: O_1  and  C_28
REMARK    3  A    between atoms: O_2  and  C_23
REMARK    4  A    between atoms: O_2  and  C_31
REMARK    5  A    between atoms: O_3  and  C_27
REMARK    6  A    between atoms: O_3  and  C_32
REMARK    7  A    between atoms: O_4  and  C_30
REMARK    8  A    between atoms: O_4  and  C_33
REMARK    9  A    between atoms: N_5  and  C_12
REMARK   10  A    between atoms: N_5  and  C_18
REMARK   11  A    between atoms: N_5  and  C_20
REMARK   12  A    between atoms: C_7  and  C_8
REMARK   13  A    between atoms: C_7  and  C_9
REMARK   14  A    between atoms: C_7  and  C_11
REMARK   15  A    between atoms: C_7  and  C_15
REMARK   16  A    between atoms: C_8  and  C_13
REMARK   17  A    between atoms: C_8  and  C_14
REMARK   18  A    between atoms: C_9  and  C_10
REMARK   19  A    between atoms: C_10  and  C_12
REMARK   20  A    between atoms: C_18  and  C_22
REMARK   21  A    between atoms: C_22  and  C_24
REMARK                            x       y       z     vdW  Elec       q    Type
REMARK                         _______ _______ _______ _____ _____    ______ ____
ROOT
ATOM      1  C   UNL A   1      -9.800  -8.026  33.267  0.00  0.00    -0.038 C 
ATOM      2  H   UNL A   1      -9.738  -8.251  34.336  0.00  0.00    +0.028 HD
ATOM      3  H   UNL A   1     -10.243  -7.033  33.162  0.00  0.00    +0.028 HD
ENDROOT
BRANCH   1   4
ATOM      4  C   UNL A   1     -10.768  -9.051  32.624  0.00  0.00    -0.001 C 
ATOM      5  H   UNL A   1     -11.511  -8.541  31.996  0.00  0.00    +0.043 HD
ATOM      6  H   UNL A   1     -10.167  -9.672  31.947  0.00  0.00    +0.043 HD
BRANCH   4   7
ATOM      7  N   UNL A   1     -11.445  -9.933  33.622  0.00  0.00    -0.305 NA
BRANCH   7   8
ATOM      8  C   UNL A   1     -11.885  -9.139  34.775  0.00  0.00    -0.013 C 
ATOM      9  H   UNL A   1     -11.100  -9.027  35.532  0.00  0.00    +0.039 HD
ATOM     10  H   UNL A   1     -12.205  -8.139  34.462  0.00  0.00    +0.039 HD
ATOM     11  H   UNL A   1     -12.767  -9.585  35.246  0.00  0.00    +0.039 HD
ENDBRANCH   7   8
BRANCH   7  12
ATOM     12  C   UNL A   1     -10.586 -11.084  34.026  0.00  0.00    +0.003 C 
ATOM     13  H   UNL A   1     -10.011 -10.765  34.901  0.00  0.00    +0.043 HD
ATOM     14  H   UNL A   1     -11.228 -11.917  34.336  0.00  0.00    +0.043 HD
BRANCH  12  15
ATOM     15  C   UNL A   1      -9.566 -11.633  32.980  0.00  0.00    -0.015 C 
ATOM     16  H   UNL A   1      -9.955 -11.410  31.977  0.00  0.00    +0.033 HD
ATOM     17  H   UNL A   1      -8.611 -11.106  33.087  0.00  0.00    +0.033 HD
BRANCH  15  18
ATOM     18  C   UNL A   1      -9.294 -13.137  32.974  0.00  0.00    -0.043 A 
ATOM     19  C   UNL A   1      -9.974 -14.059  33.788  0.00  0.00    -0.013 A 
ATOM     20  C   UNL A   1      -8.357 -13.645  32.064  0.00  0.00    -0.055 A 
ATOM     21  C   UNL A   1      -9.820 -15.457  33.631  0.00  0.00    +0.162 A 
ATOM     22  C   UNL A   1      -8.166 -15.024  31.928  0.00  0.00    -0.016 A 
ATOM     23  C   UNL A   1      -8.910 -15.941  32.681  0.00  0.00    +0.162 A 
ATOM     24  H   UNL A   1     -10.636 -13.677  34.555  0.00  0.00    +0.066 HD
ATOM     25  H   UNL A   1      -7.774 -12.973  31.436  0.00  0.00    +0.062 HD
ATOM     26  H   UNL A   1      -7.437 -15.391  31.207  0.00  0.00    +0.066 HD
BRANCH  23  27
ATOM     27  O   UNL A   1      -8.614 -17.244  32.363  0.00  0.00    -0.491 OA
BRANCH  27  28
ATOM     28  C   UNL A   1      -7.324 -17.754  32.679  0.00  0.00    +0.079 C 
ATOM     29  H   UNL A   1      -6.623 -16.945  32.899  0.00  0.00    +0.066 HD
ATOM     30  H   UNL A   1      -7.367 -18.498  33.482  0.00  0.00    +0.066 HD
ATOM     31  H   UNL A   1      -6.942 -18.265  31.788  0.00  0.00    +0.066 HD
ENDBRANCH  27  28
ENDBRANCH  23  27
BRANCH  21  32
ATOM     32  O   UNL A   1     -10.525 -16.371  34.362  0.00  0.00    -0.491 OA
BRANCH  32  33
ATOM     33  C   UNL A   1      -9.947 -16.934  35.530  0.00  0.00    +0.079 C 
ATOM     34  H   UNL A   1      -9.000 -16.434  35.759  0.00  0.00    +0.066 HD
ATOM     35  H   UNL A   1     -10.625 -16.919  36.390  0.00  0.00    +0.066 HD
ATOM     36  H   UNL A   1      -9.733 -17.985  35.316  0.00  0.00    +0.066 HD
ENDBRANCH  32  33
ENDBRANCH  21  32
ENDBRANCH  15  18
ENDBRANCH  12  15
ENDBRANCH   7  12
ENDBRANCH   4   7
ENDBRANCH   1   4
BRANCH   1  37
ATOM     37  C   UNL A   1      -8.358  -8.017  32.657  0.00  0.00    -0.029 C 
ATOM     38  H   UNL A   1      -8.304  -7.185  31.939  0.00  0.00    +0.028 HD
ATOM     39  H   UNL A   1      -8.225  -8.914  32.038  0.00  0.00    +0.028 HD
BRANCH  37  40
ATOM     40  C   UNL A   1      -7.132  -7.900  33.713  0.00  0.00    +0.085 C 
BRANCH  40  41
ATOM     41  C   UNL A   1      -7.168  -9.264  34.462  0.00  0.00    -0.024 A 
ATOM     42  C   UNL A   1      -6.434 -10.353  33.946  0.00  0.00    -0.012 A 
ATOM     43  C   UNL A   1      -7.758  -9.448  35.722  0.00  0.00    -0.053 A 
ATOM     44  C   UNL A   1      -6.230 -11.545  34.661  0.00  0.00    +0.162 A 
ATOM     45  C   UNL A   1      -7.633 -10.660  36.408  0.00  0.00    -0.016 A 
ATOM     46  C   UNL A   1      -6.879 -11.716  35.888  0.00  0.00    +0.162 A 
ATOM     47  H   UNL A   1      -5.966 -10.252  32.967  0.00  0.00    +0.066 HD
ATOM     48  H   UNL A   1      -8.300  -8.654  36.228  0.00  0.00    +0.062 HD
ATOM     49  H   UNL A   1      -8.108 -10.774  37.382  0.00  0.00    +0.066 HD
BRANCH  44  50
ATOM     50  O   UNL A   1      -5.395 -12.528  34.199  0.00  0.00    -0.491 OA
BRANCH  50  51
ATOM     51  C   UNL A   1      -4.041 -12.422  34.634  0.00  0.00    +0.079 C 
ATOM     52  H   UNL A   1      -3.472 -13.232  34.170  0.00  0.00    +0.066 HD
ATOM     53  H   UNL A   1      -3.599 -11.476  34.304  0.00  0.00    +0.066 HD
ATOM     54  H   UNL A   1      -3.952 -12.534  35.723  0.00  0.00    +0.066 HD
ENDBRANCH  50  51
ENDBRANCH  44  50
BRANCH  46  55
ATOM     55  O   UNL A   1      -6.794 -12.793  36.731  0.00  0.00    -0.491 OA
BRANCH  55  56
ATOM     56  C   UNL A   1      -7.773 -13.810  36.560  0.00  0.00    +0.079 C 
ATOM     57  H   UNL A   1      -7.617 -14.385  35.641  0.00  0.00    +0.066 HD
ATOM     58  H   UNL A   1      -7.816 -14.458  37.439  0.00  0.00    +0.066 HD
ATOM     59  H   UNL A   1      -8.747 -13.315  36.479  0.00  0.00    +0.066 HD
ENDBRANCH  55  56
ENDBRANCH  46  55
ENDBRANCH  40  41
BRANCH  40  60
ATOM     60  C   UNL A   1      -5.795  -7.613  32.923  0.00  0.00    -0.024 C 
ATOM     61  H   UNL A   1      -5.353  -8.579  32.644  0.00  0.00    +0.031 HD
BRANCH  60  62
ATOM     62  C   UNL A   1      -4.711  -6.865  33.713  0.00  0.00    -0.061 C 
ATOM     63  H   UNL A   1      -5.128  -6.223  34.498  0.00  0.00    +0.023 HD
ATOM     64  H   UNL A   1      -4.059  -7.584  34.222  0.00  0.00    +0.023 HD
ATOM     65  H   UNL A   1      -4.089  -6.244  33.066  0.00  0.00    +0.023 HD
ENDBRANCH  60  62
BRANCH  60  66
ATOM     66  C   UNL A   1      -5.998  -6.865  31.592  0.00  0.00    -0.061 C 
ATOM     67  H   UNL A   1      -6.630  -7.433  30.903  0.00  0.00    +0.023 HD
ATOM     68  H   UNL A   1      -6.484  -5.897  31.769  0.00  0.00    +0.023 HD
ATOM     69  H   UNL A   1      -5.051  -6.643  31.095  0.00  0.00    +0.023 HD
ENDBRANCH  60  66
ENDBRANCH  40  60
BRANCH  40  71
ATOM     70  N   UNL A   1      -7.733  -5.861  35.507  0.00  0.00    -0.196 NA
ATOM     71  C   UNL A   1      -7.460  -6.786  34.693  0.00  0.00    +0.074 C 
ENDBRANCH  40  71
ENDBRANCH  37  40
ENDBRANCH   1  37
TORSDOF 21
ENDMDL
MODEL 9
REMARK VINA RESULT:    -5.106     35.185     38.690
REMARK INTER + INTRA:         -12.042
REMARK INTER:                 -10.330
REMARK INTRA:                  -1.712
REMARK UNBOUND:                -1.712
REMARK  Name = 2520
REMARK  21 active torsions:
REMARK  status: ('A' for Active; 'I' for Inactive)
REMARK    1  A    between atoms: O_1  and  C_19
REMARK    2  A    between atoms: O_1  and  C_28
REMARK    3  A    between atoms: O_2  and  C_23
REMARK    4  A    between atoms: O_2  and  C_31
REMARK    5  A    between atoms: O_3  and  C_27
REMARK    6  A    between atoms: O_3  and  C_32
REMARK    7  A    between atoms: O_4  and  C_30
REMARK    8  A    between atoms: O_4  and  C_33
REMARK    9  A    between atoms: N_5  and  C_12
REMARK   10  A    between atoms: N_5  and  C_18
REMARK   11  A    between atoms: N_5  and  C_20
REMARK   12  A    between atoms: C_7  and  C_8
REMARK   13  A    between atoms: C_7  and  C_9
REMARK   14  A    between atoms: C_7  and  C_11
REMARK   15  A    between atoms: C_7  and  C_15
REMARK   16  A    between atoms: C_8  and  C_13
REMARK   17  A    between atoms: C_8  and  C_14
REMARK   18  A    between atoms: C_9  and  C_10
REMARK   19  A    between atoms: C_10  and  C_12
REMARK   20  A    between atoms: C_18  and  C_22
REMARK   21  A    between atoms: C_22  and  C_24
REMARK                            x       y       z     vdW  Elec       q    Type
REMARK                         _______ _______ _______ _____ _____    ______ ____
ROOT
ATOM      1  C   UNL A   1     -18.306   8.189 -10.911  0.00  0.00    -0.038 C 
ATOM      2  H   UNL A   1     -17.526   8.848 -11.306  0.00  0.00    +0.028 HD
ATOM      3  H   UNL A   1     -19.223   8.777 -10.822  0.00  0.00    +0.028 HD
ENDROOT
BRANCH   1   4
ATOM      4  C   UNL A   1     -17.879   7.753  -9.486  0.00  0.00    -0.001 C 
ATOM      5  H   UNL A   1     -17.770   6.661  -9.431  0.00  0.00    +0.043 HD
ATOM      6  H   UNL A   1     -16.878   8.171  -9.314  0.00  0.00    +0.043 HD
BRANCH   4   7
ATOM      7  N   UNL A   1     -18.801   8.240  -8.417  0.00  0.00    -0.305 NA
BRANCH   7   8
ATOM      8  C   UNL A   1     -18.030   8.639  -7.234  0.00  0.00    -0.013 C 
ATOM      9  H   UNL A   1     -17.156   8.000  -7.066  0.00  0.00    +0.039 HD
ATOM     10  H   UNL A   1     -17.686   9.676  -7.323  0.00  0.00    +0.039 HD
ATOM     11  H   UNL A   1     -18.655   8.625  -6.334  0.00  0.00    +0.039 HD
ENDBRANCH   7   8
BRANCH   7  12
ATOM     12  C   UNL A   1     -19.857   7.238  -8.089  0.00  0.00    +0.003 C 
ATOM     13  H   UNL A   1     -19.451   6.251  -8.333  0.00  0.00    +0.043 HD
ATOM     14  H   UNL A   1     -20.048   7.261  -7.009  0.00  0.00    +0.043 HD
BRANCH  12  15
ATOM     15  C   UNL A   1     -21.231   7.364  -8.817  0.00  0.00    -0.015 C 
ATOM     16  H   UNL A   1     -21.097   7.032  -9.855  0.00  0.00    +0.033 HD
ATOM     17  H   UNL A   1     -21.958   6.691  -8.347  0.00  0.00    +0.033 HD
BRANCH  15  18
ATOM     18  C   UNL A   1     -21.855   8.755  -8.924  0.00  0.00    -0.043 A 
ATOM     19  C   UNL A   1     -22.288   9.328 -10.131  0.00  0.00    -0.013 A 
ATOM     20  C   UNL A   1     -22.067   9.487  -7.747  0.00  0.00    -0.055 A 
ATOM     21  C   UNL A   1     -23.018  10.540 -10.169  0.00  0.00    +0.162 A 
ATOM     22  C   UNL A   1     -22.751  10.707  -7.776  0.00  0.00    -0.016 A 
ATOM     23  C   UNL A   1     -23.258  11.231  -8.972  0.00  0.00    +0.162 A 
ATOM     24  H   UNL A   1     -22.055   8.816 -11.056  0.00  0.00    +0.066 HD
ATOM     25  H   UNL A   1     -21.716   9.108  -6.789  0.00  0.00    +0.062 HD
ATOM     26  H   UNL A   1     -22.910  11.250  -6.846  0.00  0.00    +0.066 HD
BRANCH  23  27
ATOM     27  O   UNL A   1     -23.943  12.406  -8.783  0.00  0.00    -0.491 OA
BRANCH  27  28
ATOM     28  C   UNL A   1     -23.892  13.035  -7.508  0.00  0.00    +0.079 C 
ATOM     29  H   UNL A   1     -22.941  12.838  -7.008  0.00  0.00    +0.066 HD
ATOM     30  H   UNL A   1     -24.114  14.106  -7.575  0.00  0.00    +0.066 HD
ATOM     31  H   UNL A   1     -24.672  12.584  -6.885  0.00  0.00    +0.066 HD
ENDBRANCH  27  28
ENDBRANCH  23  27
BRANCH  21  32
ATOM     32  O   UNL A   1     -23.512  11.077 -11.324  0.00  0.00    -0.491 OA
BRANCH  32  33
ATOM     33  C   UNL A   1     -22.648  11.274 -12.433  0.00  0.00    +0.079 C 
ATOM     34  H   UNL A   1     -23.215  11.216 -13.367  0.00  0.00    +0.066 HD
ATOM     35  H   UNL A   1     -22.079  12.208 -12.369  0.00  0.00    +0.066 HD
ATOM     36  H   UNL A   1     -21.917  10.461 -12.428  0.00  0.00    +0.066 HD
ENDBRANCH  32  33
ENDBRANCH  21  32
ENDBRANCH  15  18
ENDBRANCH  12  15
ENDBRANCH   7  12
ENDBRANCH   4   7
ENDBRANCH   1   4
BRANCH   1  37
ATOM     37  C   UNL A   1     -18.541   7.009 -11.913  0.00  0.00    -0.029 C 
ATOM     38  H   UNL A   1     -19.576   6.660 -11.780  0.00  0.00    +0.028 HD
ATOM     39  H   UNL A   1     -17.928   6.152 -11.607  0.00  0.00    +0.028 HD
BRANCH  37  40
ATOM     40  C   UNL A   1     -18.277   7.335 -13.480  0.00  0.00    +0.085 C 
BRANCH  40  41
ATOM     41  C   UNL A   1     -16.836   7.922 -13.490  0.00  0.00    -0.024 A 
ATOM     42  C   UNL A   1     -15.752   7.093 -13.128  0.00  0.00    -0.012 A 
ATOM     43  C   UNL A   1     -16.512   9.191 -13.995  0.00  0.00    -0.053 A 
ATOM     44  C   UNL A   1     -14.410   7.465 -13.316  0.00  0.00    +0.162 A 
ATOM     45  C   UNL A   1     -15.181   9.605 -14.108  0.00  0.00    -0.016 A 
ATOM     46  C   UNL A   1     -14.123   8.757 -13.768  0.00  0.00    +0.162 A 
ATOM     47  H   UNL A   1     -15.961   6.103 -12.725  0.00  0.00    +0.066 HD
ATOM     48  H   UNL A   1     -17.271   9.883 -14.348  0.00  0.00    +0.062 HD
ATOM     49  H   UNL A   1     -14.963  10.599 -14.498  0.00  0.00    +0.066 HD
BRANCH  44  50
ATOM     50  O   UNL A   1     -13.382   6.587 -13.091  0.00  0.00    -0.491 OA
BRANCH  50  51
ATOM     51  C   UNL A   1     -13.049   5.753 -14.199  0.00  0.00    +0.079 C 
ATOM     52  H   UNL A   1     -12.549   4.861 -13.814  0.00  0.00    +0.066 HD
ATOM     53  H   UNL A   1     -13.952   5.425 -14.724  0.00  0.00    +0.066 HD
ATOM     54  H   UNL A   1     -12.356   6.251 -14.891  0.00  0.00    +0.066 HD
ENDBRANCH  50  51
ENDBRANCH  44  50
BRANCH  46  55
ATOM     55  O   UNL A   1     -12.889   9.294 -14.023  0.00  0.00    -0.491 OA
BRANCH  55  56
ATOM     56  C   UNL A   1     -12.771  10.704 -13.885  0.00  0.00    +0.079 C 
ATOM     57  H   UNL A   1     -13.480  11.244 -14.522  0.00  0.00    +0.066 HD
ATOM     58  H   UNL A   1     -12.865  11.000 -12.837  0.00  0.00    +0.066 HD
ATOM     59  H   UNL A   1     -11.762  10.980 -14.206  0.00  0.00    +0.066 HD
ENDBRANCH  55  56
ENDBRANCH  46  55
ENDBRANCH  40  41
BRANCH  40  60
ATOM     60  C   UNL A   1     -18.459   6.010 -14.320  0.00  0.00    -0.024 C 
ATOM     61  H   UNL A   1     -19.525   5.905 -14.559  0.00  0.00    +0.031 HD
BRANCH  60  62
ATOM     62  C   UNL A   1     -18.059   4.714 -13.600  0.00  0.00    -0.061 C 
ATOM     63  H   UNL A   1     -18.636   4.544 -12.683  0.00  0.00    +0.023 HD
ATOM     64  H   UNL A   1     -18.255   3.852 -14.247  0.00  0.00    +0.023 HD
ATOM     65  H   UNL A   1     -16.999   4.703 -13.337  0.00  0.00    +0.023 HD
ENDBRANCH  60  62
BRANCH  60  66
ATOM     66  C   UNL A   1     -17.741   6.025 -15.683  0.00  0.00    -0.061 C 
ATOM     67  H   UNL A   1     -17.066   6.880 -15.773  0.00  0.00    +0.023 HD
ATOM     68  H   UNL A   1     -17.144   5.113 -15.808  0.00  0.00    +0.023 HD
ATOM     69  H   UNL A   1     -18.445   6.045 -16.519  0.00  0.00    +0.023 HD
ENDBRANCH  60  66
ENDBRANCH  40  60
BRANCH  40  71
ATOM     70  N   UNL A   1     -20.069   9.312 -14.264  0.00  0.00    -0.196 NA
ATOM     71  C   UNL A   1     -19.256   8.415 -13.908  0.00  0.00    +0.074 C 
ENDBRANCH  40  71
ENDBRANCH  37  40
ENDBRANCH   1  37
TORSDOF 21
ENDMDL
