MODEL 1
REMARK VINA RESULT:    -6.641      0.000      0.000
REMARK INTER + INTRA:         -15.259
REMARK INTER:                 -12.851
REMARK INTRA:                  -2.409
REMARK UNBOUND:                -1.825
REMARK  Name = 2520
REMARK  21 active torsions:
REMARK  status: ('A' for Active; 'I' for Inactive)
REMARK    1  A    between atoms: O_1  and  C_19
REMARK    2  A    between atoms: O_1  and  C_28
REMARK    3  A    between atoms: O_2  and  C_23
REMARK    4  A    between atoms: O_2  and  C_31
REMARK    5  A    between atoms: O_3  and  C_27
REMARK    6  A    between atoms: O_3  and  C_32
REMARK    7  A    between atoms: O_4  and  C_30
REMARK    8  A    between atoms: O_4  and  C_33
REMARK    9  A    between atoms: N_5  and  C_12
REMARK   10  A    between atoms: N_5  and  C_18
REMARK   11  A    between atoms: N_5  and  C_20
REMARK   12  A    between atoms: C_7  and  C_8
REMARK   13  A    between atoms: C_7  and  C_9
REMARK   14  A    between atoms: C_7  and  C_11
REMARK   15  A    between atoms: C_7  and  C_15
REMARK   16  A    between atoms: C_8  and  C_13
REMARK   17  A    between atoms: C_8  and  C_14
REMARK   18  A    between atoms: C_9  and  C_10
REMARK   19  A    between atoms: C_10  and  C_12
REMARK   20  A    between atoms: C_18  and  C_22
REMARK   21  A    between atoms: C_22  and  C_24
REMARK                            x       y       z     vdW  Elec       q    Type
REMARK                         _______ _______ _______ _____ _____    ______ ____
ROOT
ATOM      1  C   UNL A   1      -5.575  -2.287   2.859  0.00  0.00    -0.038 C 
ATOM      2  H   UNL A   1      -4.960  -1.386   2.949  0.00  0.00    +0.028 HD
ATOM      3  H   UNL A   1      -5.498  -2.836   3.801  0.00  0.00    +0.028 HD
ENDROOT
BRANCH   1   4
ATOM      4  C   UNL A   1      -4.960  -3.169   1.742  0.00  0.00    -0.001 C 
ATOM      5  H   UNL A   1      -4.167  -3.811   2.148  0.00  0.00    +0.043 HD
ATOM      6  H   UNL A   1      -5.755  -3.842   1.397  0.00  0.00    +0.043 HD
BRANCH   4   7
ATOM      7  N   UNL A   1      -4.449  -2.381   0.580  0.00  0.00    -0.305 NA
BRANCH   7   8
ATOM      8  C   UNL A   1      -3.747  -3.266  -0.356  0.00  0.00    -0.013 C 
ATOM      9  H   UNL A   1      -3.409  -4.195   0.117  0.00  0.00    +0.039 HD
ATOM     10  H   UNL A   1      -4.391  -3.527  -1.204  0.00  0.00    +0.039 HD
ATOM     11  H   UNL A   1      -2.882  -2.762  -0.801  0.00  0.00    +0.039 HD
ENDBRANCH   7   8
BRANCH   7  12
ATOM     12  C   UNL A   1      -3.601  -1.232   1.012  0.00  0.00    +0.003 C 
ATOM     13  H   UNL A   1      -3.935  -0.944   2.014  0.00  0.00    +0.043 HD
ATOM     14  H   UNL A   1      -2.560  -1.567   1.093  0.00  0.00    +0.043 HD
BRANCH  12  15
ATOM     15  C   UNL A   1      -3.618   0.056   0.132  0.00  0.00    -0.015 C 
ATOM     16  H   UNL A   1      -2.577   0.358  -0.049  0.00  0.00    +0.033 HD
ATOM     17  H   UNL A   1      -4.068  -0.170  -0.842  0.00  0.00    +0.033 HD
BRANCH  15  18
ATOM     18  C   UNL A   1      -4.296   1.300   0.704  0.00  0.00    -0.043 A 
ATOM     19  C   UNL A   1      -4.242   2.568   0.101  0.00  0.00    -0.013 A 
ATOM     20  C   UNL A   1      -5.069   1.168   1.866  0.00  0.00    -0.055 A 
ATOM     21  C   UNL A   1      -5.024   3.654   0.563  0.00  0.00    +0.162 A 
ATOM     22  C   UNL A   1      -5.814   2.245   2.356  0.00  0.00    -0.016 A 
ATOM     23  C   UNL A   1      -5.826   3.483   1.701  0.00  0.00    +0.162 A 
ATOM     24  H   UNL A   1      -3.581   2.708  -0.745  0.00  0.00    +0.066 HD
ATOM     25  H   UNL A   1      -5.115   0.217   2.395  0.00  0.00    +0.062 HD
ATOM     26  H   UNL A   1      -6.414   2.111   3.256  0.00  0.00    +0.066 HD
BRANCH  23  27
ATOM     27  O   UNL A   1      -6.659   4.391   2.307  0.00  0.00    -0.491 OA
BRANCH  27  28
ATOM     28  C   UNL A   1      -6.087   5.508   2.977  0.00  0.00    +0.079 C 
ATOM     29  H   UNL A   1      -5.826   5.260   4.009  0.00  0.00    +0.066 HD
ATOM     30  H   UNL A   1      -5.239   5.924   2.421  0.00  0.00    +0.066 HD
ATOM     31  H   UNL A   1      -6.852   6.291   3.028  0.00  0.00    +0.066 HD
ENDBRANCH  27  28
ENDBRANCH  23  27
BRANCH  21  32
ATOM     32  O   UNL A   1      -5.043   4.874  -0.052  0.00  0.00    -0.491 OA
BRANCH  32  33
ATOM     33  C   UNL A   1      -3.866   5.667  -0.074  0.00  0.00    +0.079 C 
ATOM     34  H   UNL A   1      -3.903   6.419   0.720  0.00  0.00    +0.066 HD
ATOM     35  H   UNL A   1      -2.949   5.070  -0.017  0.00  0.00    +0.066 HD
ATOM     36  H   UNL A   1      -3.841   6.189  -1.035  0.00  0.00    +0.066 HD
ENDBRANCH  32  33
ENDBRANCH  21  32
ENDBRANCH  15  18
ENDBRANCH  12  15
ENDBRANCH   7  12
ENDBRANCH   4   7
ENDBRANCH   1   4
BRANCH   1  37
ATOM     37  C   UNL A   1      -7.066  -1.874   2.619  0.00  0.00    -0.029 C 
ATOM     38  H   UNL A   1      -7.243  -1.882   1.534  0.00  0.00    +0.028 HD
ATOM     39  H   UNL A   1      -7.196  -0.822   2.904  0.00  0.00    +0.028 HD
BRANCH  37  40
ATOM     40  C   UNL A   1      -8.190  -2.780   3.358  0.00  0.00    +0.085 C 
BRANCH  40  41
ATOM     41  C   UNL A   1      -9.230  -1.734   3.853  0.00  0.00    -0.024 A 
ATOM     42  C   UNL A   1      -8.915  -0.359   3.777  0.00  0.00    -0.012 A 
ATOM     43  C   UNL A   1     -10.545  -2.054   4.226  0.00  0.00    -0.053 A 
ATOM     44  C   UNL A   1      -9.863   0.655   3.991  0.00  0.00    +0.162 A 
ATOM     45  C   UNL A   1     -11.476  -1.054   4.523  0.00  0.00    -0.016 A 
ATOM     46  C   UNL A   1     -11.148   0.300   4.417  0.00  0.00    +0.162 A 
ATOM     47  H   UNL A   1      -7.903  -0.069   3.498  0.00  0.00    +0.066 HD
ATOM     48  H   UNL A   1     -10.900  -3.080   4.263  0.00  0.00    +0.062 HD
ATOM     49  H   UNL A   1     -12.486  -1.336   4.816  0.00  0.00    +0.066 HD
BRANCH  44  50
ATOM     50  O   UNL A   1      -9.568   1.975   3.771  0.00  0.00    -0.491 OA
BRANCH  50  51
ATOM     51  C   UNL A   1      -9.576   2.373   2.402  0.00  0.00    +0.079 C 
ATOM     52  H   UNL A   1     -10.607   2.328   2.042  0.00  0.00    +0.066 HD
ATOM     53  H   UNL A   1      -9.234   3.408   2.295  0.00  0.00    +0.066 HD
ATOM     54  H   UNL A   1      -8.975   1.699   1.777  0.00  0.00    +0.066 HD
ENDBRANCH  50  51
ENDBRANCH  44  50
BRANCH  46  55
ATOM     55  O   UNL A   1     -12.203   1.139   4.662  0.00  0.00    -0.491 OA
BRANCH  55  56
ATOM     56  C   UNL A   1     -13.050   1.430   3.557  0.00  0.00    +0.079 C 
ATOM     57  H   UNL A   1     -14.078   1.086   3.721  0.00  0.00    +0.066 HD
ATOM     58  H   UNL A   1     -13.016   2.495   3.313  0.00  0.00    +0.066 HD
ATOM     59  H   UNL A   1     -12.655   0.890   2.691  0.00  0.00    +0.066 HD
ENDBRANCH  55  56
ENDBRANCH  46  55
ENDBRANCH  40  41
BRANCH  40  60
ATOM     60  C   UNL A   1      -8.752  -3.842   2.333  0.00  0.00    -0.024 C 
ATOM     61  H   UNL A   1      -9.764  -4.121   2.657  0.00  0.00    +0.031 HD
BRANCH  60  62
ATOM     62  C   UNL A   1      -7.960  -5.155   2.246  0.00  0.00    -0.061 C 
ATOM     63  H   UNL A   1      -7.644  -5.390   1.223  0.00  0.00    +0.023 HD
ATOM     64  H   UNL A   1      -7.042  -5.076   2.839  0.00  0.00    +0.023 HD
ATOM     65  H   UNL A   1      -8.534  -6.004   2.625  0.00  0.00    +0.023 HD
ENDBRANCH  60  62
BRANCH  60  66
ATOM     66  C   UNL A   1      -8.922  -3.305   0.900  0.00  0.00    -0.061 C 
ATOM     67  H   UNL A   1      -8.831  -4.103   0.158  0.00  0.00    +0.023 HD
ATOM     68  H   UNL A   1      -9.912  -2.849   0.780  0.00  0.00    +0.023 HD
ATOM     69  H   UNL A   1      -8.197  -2.523   0.664  0.00  0.00    +0.023 HD
ENDBRANCH  60  66
ENDBRANCH  40  60
BRANCH  40  71
ATOM     70  N   UNL A   1      -7.005  -3.994   5.563  0.00  0.00    -0.196 NA
ATOM     71  C   UNL A   1      -7.542  -3.443   4.563  0.00  0.00    +0.074 C 
ENDBRANCH  40  71
ENDBRANCH  37  40
ENDBRANCH   1  37
TORSDOF 21
ENDMDL
MODEL 2
REMARK VINA RESULT:    -6.536      2.585      4.682
REMARK INTER + INTRA:         -15.047
REMARK INTER:                 -13.137
REMARK INTRA:                  -1.910
REMARK UNBOUND:                -1.825
REMARK  Name = 2520
REMARK  21 active torsions:
REMARK  status: ('A' for Active; 'I' for Inactive)
REMARK    1  A    between atoms: O_1  and  C_19
REMARK    2  A    between atoms: O_1  and  C_28
REMARK    3  A    between atoms: O_2  and  C_23
REMARK    4  A    between atoms: O_2  and  C_31
REMARK    5  A    between atoms: O_3  and  C_27
REMARK    6  A    between atoms: O_3  and  C_32
REMARK    7  A    between atoms: O_4  and  C_30
REMARK    8  A    between atoms: O_4  and  C_33
REMARK    9  A    between atoms: N_5  and  C_12
REMARK   10  A    between atoms: N_5  and  C_18
REMARK   11  A    between atoms: N_5  and  C_20
REMARK   12  A    between atoms: C_7  and  C_8
REMARK   13  A    between atoms: C_7  and  C_9
REMARK   14  A    between atoms: C_7  and  C_11
REMARK   15  A    between atoms: C_7  and  C_15
REMARK   16  A    between atoms: C_8  and  C_13
REMARK   17  A    between atoms: C_8  and  C_14
REMARK   18  A    between atoms: C_9  and  C_10
REMARK   19  A    between atoms: C_10  and  C_12
REMARK   20  A    between atoms: C_18  and  C_22
REMARK   21  A    between atoms: C_22  and  C_24
REMARK                            x       y       z     vdW  Elec       q    Type
REMARK                         _______ _______ _______ _____ _____    ______ ____
ROOT
ATOM      1  C   UNL A   1      -8.394  -1.085   3.021  0.00  0.00    -0.038 C 
ATOM      2  H   UNL A   1      -7.574  -0.362   3.056  0.00  0.00    +0.028 HD
ATOM      3  H   UNL A   1      -8.709  -1.280   4.049  0.00  0.00    +0.028 HD
ENDROOT
BRANCH   1   4
ATOM      4  C   UNL A   1      -7.833  -2.406   2.435  0.00  0.00    -0.001 C 
ATOM      5  H   UNL A   1      -8.652  -3.074   2.133  0.00  0.00    +0.043 HD
ATOM      6  H   UNL A   1      -7.297  -2.141   1.514  0.00  0.00    +0.043 HD
BRANCH   4   7
ATOM      7  N   UNL A   1      -6.896  -3.113   3.359  0.00  0.00    -0.305 NA
BRANCH   7   8
ATOM      8  C   UNL A   1      -7.129  -2.676   4.740  0.00  0.00    -0.013 C 
ATOM      9  H   UNL A   1      -6.213  -2.673   5.341  0.00  0.00    +0.039 HD
ATOM     10  H   UNL A   1      -7.558  -1.667   4.763  0.00  0.00    +0.039 HD
ATOM     11  H   UNL A   1      -7.873  -3.311   5.234  0.00  0.00    +0.039 HD
ENDBRANCH   7   8
BRANCH   7  12
ATOM     12  C   UNL A   1      -5.472  -2.944   2.948  0.00  0.00    +0.003 C 
ATOM     13  H   UNL A   1      -4.906  -3.763   3.405  0.00  0.00    +0.043 HD
ATOM     14  H   UNL A   1      -5.398  -3.057   1.860  0.00  0.00    +0.043 HD
BRANCH  12  15
ATOM     15  C   UNL A   1      -4.754  -1.615   3.338  0.00  0.00    -0.015 C 
ATOM     16  H   UNL A   1      -5.322  -1.149   4.156  0.00  0.00    +0.033 HD
ATOM     17  H   UNL A   1      -3.751  -1.837   3.720  0.00  0.00    +0.033 HD
BRANCH  15  18
ATOM     18  C   UNL A   1      -4.638  -0.529   2.269  0.00  0.00    -0.043 A 
ATOM     19  C   UNL A   1      -5.231   0.740   2.374  0.00  0.00    -0.013 A 
ATOM     20  C   UNL A   1      -3.845  -0.782   1.141  0.00  0.00    -0.055 A 
ATOM     21  C   UNL A   1      -4.958   1.777   1.451  0.00  0.00    +0.162 A 
ATOM     22  C   UNL A   1      -3.601   0.223   0.199  0.00  0.00    -0.016 A 
ATOM     23  C   UNL A   1      -4.124   1.513   0.355  0.00  0.00    +0.162 A 
ATOM     24  H   UNL A   1      -5.915   0.921   3.195  0.00  0.00    +0.066 HD
ATOM     25  H   UNL A   1      -3.393  -1.760   0.990  0.00  0.00    +0.062 HD
ATOM     26  H   UNL A   1      -2.974   0.002  -0.664  0.00  0.00    +0.066 HD
BRANCH  23  27
ATOM     27  O   UNL A   1      -3.727   2.366  -0.645  0.00  0.00    -0.491 OA
BRANCH  27  28
ATOM     28  C   UNL A   1      -4.603   2.598  -1.741  0.00  0.00    +0.079 C 
ATOM     29  H   UNL A   1      -4.430   1.878  -2.545  0.00  0.00    +0.066 HD
ATOM     30  H   UNL A   1      -5.652   2.623  -1.424  0.00  0.00    +0.066 HD
ATOM     31  H   UNL A   1      -4.368   3.586  -2.151  0.00  0.00    +0.066 HD
ENDBRANCH  27  28
ENDBRANCH  23  27
BRANCH  21  32
ATOM     32  O   UNL A   1      -5.467   3.039   1.575  0.00  0.00    -0.491 OA
BRANCH  32  33
ATOM     33  C   UNL A   1      -4.830   3.972   2.434  0.00  0.00    +0.079 C 
ATOM     34  H   UNL A   1      -5.438   4.878   2.523  0.00  0.00    +0.066 HD
ATOM     35  H   UNL A   1      -4.594   3.552   3.418  0.00  0.00    +0.066 HD
ATOM     36  H   UNL A   1      -3.877   4.246   1.973  0.00  0.00    +0.066 HD
ENDBRANCH  32  33
ENDBRANCH  21  32
ENDBRANCH  15  18
ENDBRANCH  12  15
ENDBRANCH   7  12
ENDBRANCH   4   7
ENDBRANCH   1   4
BRANCH   1  37
ATOM     37  C   UNL A   1      -9.591  -0.471   2.220  0.00  0.00    -0.029 C 
ATOM     38  H   UNL A   1     -10.141  -1.301   1.753  0.00  0.00    +0.028 HD
ATOM     39  H   UNL A   1      -9.197   0.101   1.371  0.00  0.00    +0.028 HD
BRANCH  37  40
ATOM     40  C   UNL A   1     -10.621   0.454   3.066  0.00  0.00    +0.085 C 
BRANCH  40  41
ATOM     41  C   UNL A   1     -10.901  -0.391   4.343  0.00  0.00    -0.024 A 
ATOM     42  C   UNL A   1     -11.305  -1.737   4.204  0.00  0.00    -0.012 A 
ATOM     43  C   UNL A   1     -10.620   0.046   5.647  0.00  0.00    -0.053 A 
ATOM     44  C   UNL A   1     -11.367  -2.632   5.285  0.00  0.00    +0.162 A 
ATOM     45  C   UNL A   1     -10.759  -0.812   6.742  0.00  0.00    -0.016 A 
ATOM     46  C   UNL A   1     -11.136  -2.148   6.576  0.00  0.00    +0.162 A 
ATOM     47  H   UNL A   1     -11.539  -2.113   3.208  0.00  0.00    +0.066 HD
ATOM     48  H   UNL A   1     -10.253   1.047   5.853  0.00  0.00    +0.062 HD
ATOM     49  H   UNL A   1     -10.540  -0.441   7.742  0.00  0.00    +0.066 HD
BRANCH  44  50
ATOM     50  O   UNL A   1     -11.623  -3.966   5.101  0.00  0.00    -0.491 OA
BRANCH  50  51
ATOM     51  C   UNL A   1     -12.994  -4.338   5.228  0.00  0.00    +0.079 C 
ATOM     52  H   UNL A   1     -13.535  -3.496   5.665  0.00  0.00    +0.066 HD
ATOM     53  H   UNL A   1     -13.435  -4.541   4.246  0.00  0.00    +0.066 HD
ATOM     54  H   UNL A   1     -13.123  -5.200   5.897  0.00  0.00    +0.066 HD
ENDBRANCH  50  51
ENDBRANCH  44  50
BRANCH  46  55
ATOM     55  O   UNL A   1     -11.138  -2.864   7.745  0.00  0.00    -0.491 OA
BRANCH  55  56
ATOM     56  C   UNL A   1     -12.312  -2.772   8.542  0.00  0.00    +0.079 C 
ATOM     57  H   UNL A   1     -12.480  -1.757   8.918  0.00  0.00    +0.066 HD
ATOM     58  H   UNL A   1     -13.181  -3.148   7.995  0.00  0.00    +0.066 HD
ATOM     59  H   UNL A   1     -12.171  -3.426   9.408  0.00  0.00    +0.066 HD
ENDBRANCH  55  56
ENDBRANCH  46  55
ENDBRANCH  40  41
BRANCH  40  60
ATOM     60  C   UNL A   1      -9.953   1.860   3.334  0.00  0.00    -0.024 C 
ATOM     61  H   UNL A   1      -9.431   1.807   4.298  0.00  0.00    +0.031 HD
BRANCH  60  62
ATOM     62  C   UNL A   1     -10.929   3.041   3.446  0.00  0.00    -0.061 C 
ATOM     63  H   UNL A   1     -11.519   3.189   2.534  0.00  0.00    +0.023 HD
ATOM     64  H   UNL A   1     -11.650   2.853   4.249  0.00  0.00    +0.023 HD
ATOM     65  H   UNL A   1     -10.413   3.977   3.669  0.00  0.00    +0.023 HD
ENDBRANCH  60  62
BRANCH  60  66
ATOM     66  C   UNL A   1      -8.870   2.247   2.310  0.00  0.00    -0.061 C 
ATOM     67  H   UNL A   1      -7.885   1.875   2.606  0.00  0.00    +0.023 HD
ATOM     68  H   UNL A   1      -9.106   1.823   1.327  0.00  0.00    +0.023 HD
ATOM     69  H   UNL A   1      -8.806   3.329   2.167  0.00  0.00    +0.023 HD
ENDBRANCH  60  66
ENDBRANCH  40  60
BRANCH  40  71
ATOM     70  N   UNL A   1     -12.973   0.687   1.599  0.00  0.00    -0.196 NA
ATOM     71  C   UNL A   1     -11.906   0.581   2.264  0.00  0.00    +0.074 C 
ENDBRANCH  40  71
ENDBRANCH  37  40
ENDBRANCH   1  37
TORSDOF 21
ENDMDL
MODEL 3
REMARK VINA RESULT:    -6.169      3.160      5.718
REMARK INTER + INTRA:         -14.306
REMARK INTER:                 -12.939
REMARK INTRA:                  -1.367
REMARK UNBOUND:                -1.825
REMARK  Name = 2520
REMARK  21 active torsions:
REMARK  status: ('A' for Active; 'I' for Inactive)
REMARK    1  A    between atoms: O_1  and  C_19
REMARK    2  A    between atoms: O_1  and  C_28
REMARK    3  A    between atoms: O_2  and  C_23
REMARK    4  A    between atoms: O_2  and  C_31
REMARK    5  A    between atoms: O_3  and  C_27
REMARK    6  A    between atoms: O_3  and  C_32
REMARK    7  A    between atoms: O_4  and  C_30
REMARK    8  A    between atoms: O_4  and  C_33
REMARK    9  A    between atoms: N_5  and  C_12
REMARK   10  A    between atoms: N_5  and  C_18
REMARK   11  A    between atoms: N_5  and  C_20
REMARK   12  A    between atoms: C_7  and  C_8
REMARK   13  A    between atoms: C_7  and  C_9
REMARK   14  A    between atoms: C_7  and  C_11
REMARK   15  A    between atoms: C_7  and  C_15
REMARK   16  A    between atoms: C_8  and  C_13
REMARK   17  A    between atoms: C_8  and  C_14
REMARK   18  A    between atoms: C_9  and  C_10
REMARK   19  A    between atoms: C_10  and  C_12
REMARK   20  A    between atoms: C_18  and  C_22
REMARK   21  A    between atoms: C_22  and  C_24
REMARK                            x       y       z     vdW  Elec       q    Type
REMARK                         _______ _______ _______ _____ _____    ______ ____
ROOT
ATOM      1  C   UNL A   1      -8.434  -0.976   3.102  0.00  0.00    -0.038 C 
ATOM      2  H   UNL A   1      -7.720  -0.204   3.405  0.00  0.00    +0.028 HD
ATOM      3  H   UNL A   1      -8.856  -1.413   4.011  0.00  0.00    +0.028 HD
ENDROOT
BRANCH   1   4
ATOM      4  C   UNL A   1      -7.643  -2.086   2.362  0.00  0.00    -0.001 C 
ATOM      5  H   UNL A   1      -8.284  -2.596   1.631  0.00  0.00    +0.043 HD
ATOM      6  H   UNL A   1      -6.857  -1.582   1.785  0.00  0.00    +0.043 HD
BRANCH   4   7
ATOM      7  N   UNL A   1      -7.012  -3.078   3.284  0.00  0.00    -0.305 NA
BRANCH   7   8
ATOM      8  C   UNL A   1      -7.341  -2.749   4.676  0.00  0.00    -0.013 C 
ATOM      9  H   UNL A   1      -6.751  -1.909   5.061  0.00  0.00    +0.039 HD
ATOM     10  H   UNL A   1      -8.404  -2.497   4.777  0.00  0.00    +0.039 HD
ATOM     11  H   UNL A   1      -7.191  -3.614   5.331  0.00  0.00    +0.039 HD
ENDBRANCH   7   8
BRANCH   7  12
ATOM     12  C   UNL A   1      -5.541  -3.188   3.065  0.00  0.00    +0.003 C 
ATOM     13  H   UNL A   1      -5.088  -3.424   4.034  0.00  0.00    +0.043 HD
ATOM     14  H   UNL A   1      -5.342  -4.031   2.392  0.00  0.00    +0.043 HD
BRANCH  12  15
ATOM     15  C   UNL A   1      -4.793  -1.941   2.498  0.00  0.00    -0.015 C 
ATOM     16  H   UNL A   1      -5.505  -1.105   2.465  0.00  0.00    +0.033 HD
ATOM     17  H   UNL A   1      -3.984  -1.656   3.181  0.00  0.00    +0.033 HD
BRANCH  15  18
ATOM     18  C   UNL A   1      -4.225  -2.035   1.083  0.00  0.00    -0.043 A 
ATOM     19  C   UNL A   1      -3.763  -0.928   0.350  0.00  0.00    -0.013 A 
ATOM     20  C   UNL A   1      -4.097  -3.300   0.494  0.00  0.00    -0.055 A 
ATOM     21  C   UNL A   1      -3.085  -1.074  -0.883  0.00  0.00    +0.162 A 
ATOM     22  C   UNL A   1      -3.465  -3.453  -0.744  0.00  0.00    -0.016 A 
ATOM     23  C   UNL A   1      -2.928  -2.356  -1.430  0.00  0.00    +0.162 A 
ATOM     24  H   UNL A   1      -3.934   0.063   0.753  0.00  0.00    +0.066 HD
ATOM     25  H   UNL A   1      -4.473  -4.187   1.001  0.00  0.00    +0.062 HD
ATOM     26  H   UNL A   1      -3.371  -4.449  -1.174  0.00  0.00    +0.066 HD
BRANCH  23  27
ATOM     27  O   UNL A   1      -2.303  -2.719  -2.597  0.00  0.00    -0.491 OA
BRANCH  27  28
ATOM     28  C   UNL A   1      -0.958  -3.180  -2.543  0.00  0.00    +0.079 C 
ATOM     29  H   UNL A   1      -0.876  -4.091  -1.944  0.00  0.00    +0.066 HD
ATOM     30  H   UNL A   1      -0.530  -3.301  -3.545  0.00  0.00    +0.066 HD
ATOM     31  H   UNL A   1      -0.366  -2.415  -2.031  0.00  0.00    +0.066 HD
ENDBRANCH  27  28
ENDBRANCH  23  27
BRANCH  21  32
ATOM     32  O   UNL A   1      -2.564  -0.018  -1.576  0.00  0.00    -0.491 OA
BRANCH  32  33
ATOM     33  C   UNL A   1      -1.227   0.392  -1.332  0.00  0.00    +0.079 C 
ATOM     34  H   UNL A   1      -0.911   0.070  -0.335  0.00  0.00    +0.066 HD
ATOM     35  H   UNL A   1      -0.529   0.050  -2.103  0.00  0.00    +0.066 HD
ATOM     36  H   UNL A   1      -1.210   1.485  -1.356  0.00  0.00    +0.066 HD
ENDBRANCH  32  33
ENDBRANCH  21  32
ENDBRANCH  15  18
ENDBRANCH  12  15
ENDBRANCH   7  12
ENDBRANCH   4   7
ENDBRANCH   1   4
BRANCH   1  37
ATOM     37  C   UNL A   1      -9.580  -0.319   2.262  0.00  0.00    -0.029 C 
ATOM     38  H   UNL A   1     -10.099  -1.123   1.720  0.00  0.00    +0.028 HD
ATOM     39  H   UNL A   1      -9.135   0.296   1.470  0.00  0.00    +0.028 HD
BRANCH  37  40
ATOM     40  C   UNL A   1     -10.662   0.561   3.089  0.00  0.00    +0.085 C 
BRANCH  40  41
ATOM     41  C   UNL A   1     -10.920  -0.289   4.367  0.00  0.00    -0.024 A 
ATOM     42  C   UNL A   1     -11.307  -1.640   4.228  0.00  0.00    -0.012 A 
ATOM     43  C   UNL A   1     -10.636   0.149   5.669  0.00  0.00    -0.053 A 
ATOM     44  C   UNL A   1     -11.349  -2.538   5.308  0.00  0.00    +0.162 A 
ATOM     45  C   UNL A   1     -10.755  -0.713   6.764  0.00  0.00    -0.016 A 
ATOM     46  C   UNL A   1     -11.115  -2.053   6.599  0.00  0.00    +0.162 A 
ATOM     47  H   UNL A   1     -11.543  -2.017   3.234  0.00  0.00    +0.066 HD
ATOM     48  H   UNL A   1     -10.281   1.155   5.875  0.00  0.00    +0.062 HD
ATOM     49  H   UNL A   1     -10.533  -0.340   7.763  0.00  0.00    +0.066 HD
BRANCH  44  50
ATOM     50  O   UNL A   1     -11.588  -3.874   5.124  0.00  0.00    -0.491 OA
BRANCH  50  51
ATOM     51  C   UNL A   1     -12.957  -4.261   5.230  0.00  0.00    +0.079 C 
ATOM     52  H   UNL A   1     -13.002  -5.353   5.222  0.00  0.00    +0.066 HD
ATOM     53  H   UNL A   1     -13.386  -3.920   6.179  0.00  0.00    +0.066 HD
ATOM     54  H   UNL A   1     -13.551  -3.897   4.382  0.00  0.00    +0.066 HD
ENDBRANCH  50  51
ENDBRANCH  44  50
BRANCH  46  55
ATOM     55  O   UNL A   1     -11.099  -2.771   7.766  0.00  0.00    -0.491 OA
BRANCH  55  56
ATOM     56  C   UNL A   1     -12.294  -2.755   8.536  0.00  0.00    +0.079 C 
ATOM     57  H   UNL A   1     -12.449  -3.694   9.079  0.00  0.00    +0.066 HD
ATOM     58  H   UNL A   1     -12.311  -1.893   9.207  0.00  0.00    +0.066 HD
ATOM     59  H   UNL A   1     -13.130  -2.635   7.839  0.00  0.00    +0.066 HD
ENDBRANCH  55  56
ENDBRANCH  46  55
ENDBRANCH  40  41
BRANCH  40  60
ATOM     60  C   UNL A   1     -10.061   1.997   3.359  0.00  0.00    -0.024 C 
ATOM     61  H   UNL A   1      -9.541   1.970   4.325  0.00  0.00    +0.031 HD
BRANCH  60  62
ATOM     62  C   UNL A   1     -11.091   3.131   3.467  0.00  0.00    -0.061 C 
ATOM     63  H   UNL A   1     -12.069   2.855   3.055  0.00  0.00    +0.023 HD
ATOM     64  H   UNL A   1     -11.264   3.379   4.521  0.00  0.00    +0.023 HD
ATOM     65  H   UNL A   1     -10.756   4.038   2.959  0.00  0.00    +0.023 HD
ENDBRANCH  60  62
BRANCH  60  66
ATOM     66  C   UNL A   1      -8.994   2.435   2.339  0.00  0.00    -0.061 C 
ATOM     67  H   UNL A   1      -9.444   2.740   1.390  0.00  0.00    +0.023 HD
ATOM     68  H   UNL A   1      -8.424   3.288   2.728  0.00  0.00    +0.023 HD
ATOM     69  H   UNL A   1      -8.264   1.646   2.143  0.00  0.00    +0.023 HD
ENDBRANCH  60  66
ENDBRANCH  40  60
BRANCH  40  71
ATOM     70  N   UNL A   1     -13.002   0.682   1.591  0.00  0.00    -0.196 NA
ATOM     71  C   UNL A   1     -11.940   0.627   2.270  0.00  0.00    +0.074 C 
ENDBRANCH  40  71
ENDBRANCH  37  40
ENDBRANCH   1  37
TORSDOF 21
ENDMDL
MODEL 4
REMARK VINA RESULT:    -6.100     26.413     29.415
REMARK INTER + INTRA:         -14.165
REMARK INTER:                 -10.312
REMARK INTRA:                  -3.853
REMARK UNBOUND:                -1.825
REMARK  Name = 2520
REMARK  21 active torsions:
REMARK  status: ('A' for Active; 'I' for Inactive)
REMARK    1  A    between atoms: O_1  and  C_19
REMARK    2  A    between atoms: O_1  and  C_28
REMARK    3  A    between atoms: O_2  and  C_23
REMARK    4  A    between atoms: O_2  and  C_31
REMARK    5  A    between atoms: O_3  and  C_27
REMARK    6  A    between atoms: O_3  and  C_32
REMARK    7  A    between atoms: O_4  and  C_30
REMARK    8  A    between atoms: O_4  and  C_33
REMARK    9  A    between atoms: N_5  and  C_12
REMARK   10  A    between atoms: N_5  and  C_18
REMARK   11  A    between atoms: N_5  and  C_20
REMARK   12  A    between atoms: C_7  and  C_8
REMARK   13  A    between atoms: C_7  and  C_9
REMARK   14  A    between atoms: C_7  and  C_11
REMARK   15  A    between atoms: C_7  and  C_15
REMARK   16  A    between atoms: C_8  and  C_13
REMARK   17  A    between atoms: C_8  and  C_14
REMARK   18  A    between atoms: C_9  and  C_10
REMARK   19  A    between atoms: C_10  and  C_12
REMARK   20  A    between atoms: C_18  and  C_22
REMARK   21  A    between atoms: C_22  and  C_24
REMARK                            x       y       z     vdW  Elec       q    Type
REMARK                         _______ _______ _______ _____ _____    ______ ____
ROOT
ATOM      1  C   UNL A   1     -25.593  -5.789  26.159  0.00  0.00    -0.038 C 
ATOM      2  H   UNL A   1     -26.389  -5.043  26.241  0.00  0.00    +0.028 HD
ATOM      3  H   UNL A   1     -25.957  -6.593  25.513  0.00  0.00    +0.028 HD
ENDROOT
BRANCH   1   4
ATOM      4  C   UNL A   1     -25.355  -6.384  27.571  0.00  0.00    -0.001 C 
ATOM      5  H   UNL A   1     -25.314  -7.480  27.527  0.00  0.00    +0.043 HD
ATOM      6  H   UNL A   1     -24.359  -6.050  27.890  0.00  0.00    +0.043 HD
BRANCH   4   7
ATOM      7  N   UNL A   1     -26.364  -5.939  28.578  0.00  0.00    -0.305 NA
BRANCH   7   8
ATOM      8  C   UNL A   1     -27.520  -6.842  28.563  0.00  0.00    -0.013 C 
ATOM      9  H   UNL A   1     -27.559  -7.461  27.659  0.00  0.00    +0.039 HD
ATOM     10  H   UNL A   1     -27.507  -7.508  29.434  0.00  0.00    +0.039 HD
ATOM     11  H   UNL A   1     -28.458  -6.283  28.647  0.00  0.00    +0.039 HD
ENDBRANCH   7   8
BRANCH   7  12
ATOM     12  C   UNL A   1     -26.761  -4.514  28.381  0.00  0.00    +0.003 C 
ATOM     13  H   UNL A   1     -26.888  -4.361  27.304  0.00  0.00    +0.043 HD
ATOM     14  H   UNL A   1     -27.735  -4.345  28.857  0.00  0.00    +0.043 HD
BRANCH  12  15
ATOM     15  C   UNL A   1     -25.785  -3.409  28.891  0.00  0.00    -0.015 C 
ATOM     16  H   UNL A   1     -26.230  -2.948  29.784  0.00  0.00    +0.033 HD
ATOM     17  H   UNL A   1     -24.838  -3.869  29.197  0.00  0.00    +0.033 HD
BRANCH  15  18
ATOM     18  C   UNL A   1     -25.480  -2.242  27.954  0.00  0.00    -0.043 A 
ATOM     19  C   UNL A   1     -26.067  -2.080  26.688  0.00  0.00    -0.013 A 
ATOM     20  C   UNL A   1     -24.610  -1.236  28.397  0.00  0.00    -0.055 A 
ATOM     21  C   UNL A   1     -25.895  -0.901  25.924  0.00  0.00    +0.162 A 
ATOM     22  C   UNL A   1     -24.399  -0.084  27.633  0.00  0.00    -0.016 A 
ATOM     23  C   UNL A   1     -25.056   0.112  26.411  0.00  0.00    +0.162 A 
ATOM     24  H   UNL A   1     -26.672  -2.888  26.295  0.00  0.00    +0.066 HD
ATOM     25  H   UNL A   1     -24.098  -1.328  29.354  0.00  0.00    +0.062 HD
ATOM     26  H   UNL A   1     -23.725   0.687  28.005  0.00  0.00    +0.066 HD
BRANCH  23  27
ATOM     27  O   UNL A   1     -24.758   1.325  25.841  0.00  0.00    -0.491 OA
BRANCH  27  28
ATOM     28  C   UNL A   1     -23.981   2.260  26.581  0.00  0.00    +0.079 C 
ATOM     29  H   UNL A   1     -23.563   3.031  25.928  0.00  0.00    +0.066 HD
ATOM     30  H   UNL A   1     -24.546   2.685  27.418  0.00  0.00    +0.066 HD
ATOM     31  H   UNL A   1     -23.130   1.719  27.009  0.00  0.00    +0.066 HD
ENDBRANCH  27  28
ENDBRANCH  23  27
BRANCH  21  32
ATOM     32  O   UNL A   1     -26.515  -0.693  24.724  0.00  0.00    -0.491 OA
BRANCH  32  33
ATOM     33  C   UNL A   1     -27.867  -0.262  24.697  0.00  0.00    +0.079 C 
ATOM     34  H   UNL A   1     -28.460  -0.837  25.415  0.00  0.00    +0.066 HD
ATOM     35  H   UNL A   1     -27.974   0.816  24.864  0.00  0.00    +0.066 HD
ATOM     36  H   UNL A   1     -28.256  -0.465  23.695  0.00  0.00    +0.066 HD
ENDBRANCH  32  33
ENDBRANCH  21  32
ENDBRANCH  15  18
ENDBRANCH  12  15
ENDBRANCH   7  12
ENDBRANCH   4   7
ENDBRANCH   1   4
BRANCH   1  37
ATOM     37  C   UNL A   1     -24.332  -5.130  25.506  0.00  0.00    -0.029 C 
ATOM     38  H   UNL A   1     -23.519  -5.869  25.531  0.00  0.00    +0.028 HD
ATOM     39  H   UNL A   1     -23.977  -4.319  26.153  0.00  0.00    +0.028 HD
BRANCH  37  40
ATOM     40  C   UNL A   1     -24.514  -4.576  23.992  0.00  0.00    +0.085 C 
BRANCH  40  41
ATOM     41  C   UNL A   1     -23.682  -3.261  23.985  0.00  0.00    -0.024 A 
ATOM     42  C   UNL A   1     -23.928  -2.296  22.985  0.00  0.00    -0.012 A 
ATOM     43  C   UNL A   1     -22.800  -2.888  25.011  0.00  0.00    -0.053 A 
ATOM     44  C   UNL A   1     -23.388  -0.999  23.024  0.00  0.00    +0.162 A 
ATOM     45  C   UNL A   1     -22.190  -1.629  25.018  0.00  0.00    -0.016 A 
ATOM     46  C   UNL A   1     -22.470  -0.681  24.030  0.00  0.00    +0.162 A 
ATOM     47  H   UNL A   1     -24.601  -2.550  22.166  0.00  0.00    +0.066 HD
ATOM     48  H   UNL A   1     -22.586  -3.539  25.853  0.00  0.00    +0.062 HD
ATOM     49  H   UNL A   1     -21.506  -1.373  25.825  0.00  0.00    +0.066 HD
BRANCH  44  50
ATOM     50  O   UNL A   1     -23.756  -0.038  22.120  0.00  0.00    -0.491 OA
BRANCH  50  51
ATOM     51  C   UNL A   1     -25.058  -0.204  21.562  0.00  0.00    +0.079 C 
ATOM     52  H   UNL A   1     -25.710   0.562  21.989  0.00  0.00    +0.066 HD
ATOM     53  H   UNL A   1     -25.039  -0.053  20.477  0.00  0.00    +0.066 HD
ATOM     54  H   UNL A   1     -25.488  -1.183  21.811  0.00  0.00    +0.066 HD
ENDBRANCH  50  51
ENDBRANCH  44  50
BRANCH  46  55
ATOM     55  O   UNL A   1     -21.852   0.524  24.240  0.00  0.00    -0.491 OA
BRANCH  55  56
ATOM     56  C   UNL A   1     -20.674   0.501  25.036  0.00  0.00    +0.079 C 
ATOM     57  H   UNL A   1     -20.700  -0.291  25.792  0.00  0.00    +0.066 HD
ATOM     58  H   UNL A   1     -19.783   0.430  24.407  0.00  0.00    +0.066 HD
ATOM     59  H   UNL A   1     -20.617   1.459  25.563  0.00  0.00    +0.066 HD
ENDBRANCH  55  56
ENDBRANCH  46  55
ENDBRANCH  40  41
BRANCH  40  60
ATOM     60  C   UNL A   1     -24.021  -5.680  22.976  0.00  0.00    -0.024 C 
ATOM     61  H   UNL A   1     -24.437  -6.644  23.296  0.00  0.00    +0.031 HD
BRANCH  60  62
ATOM     62  C   UNL A   1     -22.499  -5.878  22.908  0.00  0.00    -0.061 C 
ATOM     63  H   UNL A   1     -22.156  -6.180  21.912  0.00  0.00    +0.023 HD
ATOM     64  H   UNL A   1     -21.990  -4.934  23.133  0.00  0.00    +0.023 HD
ATOM     65  H   UNL A   1     -22.152  -6.626  23.624  0.00  0.00    +0.023 HD
ENDBRANCH  60  62
BRANCH  60  66
ATOM     66  C   UNL A   1     -24.528  -5.481  21.535  0.00  0.00    -0.061 C 
ATOM     67  H   UNL A   1     -23.733  -5.645  20.802  0.00  0.00    +0.023 HD
ATOM     68  H   UNL A   1     -25.337  -6.189  21.316  0.00  0.00    +0.023 HD
ATOM     69  H   UNL A   1     -24.947  -4.484  21.380  0.00  0.00    +0.023 HD
ENDBRANCH  60  66
ENDBRANCH  40  60
BRANCH  40  71
ATOM     70  N   UNL A   1     -27.200  -3.953  23.620  0.00  0.00    -0.196 NA
ATOM     71  C   UNL A   1     -25.981  -4.235  23.789  0.00  0.00    +0.074 C 
ENDBRANCH  40  71
ENDBRANCH  37  40
ENDBRANCH   1  37
TORSDOF 21
ENDMDL
MODEL 5
REMARK VINA RESULT:    -6.096      2.269      4.982
REMARK INTER + INTRA:         -14.158
REMARK INTER:                 -12.373
REMARK INTRA:                  -1.784
REMARK UNBOUND:                -1.825
REMARK  Name = 2520
REMARK  21 active torsions:
REMARK  status: ('A' for Active; 'I' for Inactive)
REMARK    1  A    between atoms: O_1  and  C_19
REMARK    2  A    between atoms: O_1  and  C_28
REMARK    3  A    between atoms: O_2  and  C_23
REMARK    4  A    between atoms: O_2  and  C_31
REMARK    5  A    between atoms: O_3  and  C_27
REMARK    6  A    between atoms: O_3  and  C_32
REMARK    7  A    between atoms: O_4  and  C_30
REMARK    8  A    between atoms: O_4  and  C_33
REMARK    9  A    between atoms: N_5  and  C_12
REMARK   10  A    between atoms: N_5  and  C_18
REMARK   11  A    between atoms: N_5  and  C_20
REMARK   12  A    between atoms: C_7  and  C_8
REMARK   13  A    between atoms: C_7  and  C_9
REMARK   14  A    between atoms: C_7  and  C_11
REMARK   15  A    between atoms: C_7  and  C_15
REMARK   16  A    between atoms: C_8  and  C_13
REMARK   17  A    between atoms: C_8  and  C_14
REMARK   18  A    between atoms: C_9  and  C_10
REMARK   19  A    between atoms: C_10  and  C_12
REMARK   20  A    between atoms: C_18  and  C_22
REMARK   21  A    between atoms: C_22  and  C_24
REMARK                            x       y       z     vdW  Elec       q    Type
REMARK                         _______ _______ _______ _____ _____    ______ ____
ROOT
ATOM      1  C   UNL A   1      -8.752  -3.320   2.770  0.00  0.00    -0.038 C 
ATOM      2  H   UNL A   1      -8.032  -3.274   3.592  0.00  0.00    +0.028 HD
ATOM      3  H   UNL A   1      -9.499  -4.076   3.025  0.00  0.00    +0.028 HD
ENDROOT
BRANCH   1   4
ATOM      4  C   UNL A   1      -7.995  -3.805   1.506  0.00  0.00    -0.001 C 
ATOM      5  H   UNL A   1      -8.484  -4.689   1.078  0.00  0.00    +0.043 HD
ATOM      6  H   UNL A   1      -8.089  -3.007   0.757  0.00  0.00    +0.043 HD
BRANCH   4   7
ATOM      7  N   UNL A   1      -6.547  -4.076   1.751  0.00  0.00    -0.305 NA
BRANCH   7   8
ATOM      8  C   UNL A   1      -6.302  -4.231   3.190  0.00  0.00    -0.013 C 
ATOM      9  H   UNL A   1      -5.245  -4.405   3.420  0.00  0.00    +0.039 HD
ATOM     10  H   UNL A   1      -6.632  -3.342   3.740  0.00  0.00    +0.039 HD
ATOM     11  H   UNL A   1      -6.893  -5.055   3.603  0.00  0.00    +0.039 HD
ENDBRANCH   7   8
BRANCH   7  12
ATOM     12  C   UNL A   1      -5.671  -3.034   1.141  0.00  0.00    +0.003 C 
ATOM     13  H   UNL A   1      -6.226  -2.597   0.304  0.00  0.00    +0.043 HD
ATOM     14  H   UNL A   1      -5.497  -2.238   1.875  0.00  0.00    +0.043 HD
BRANCH  12  15
ATOM     15  C   UNL A   1      -4.282  -3.482   0.589  0.00  0.00    -0.015 C 
ATOM     16  H   UNL A   1      -3.580  -3.529   1.433  0.00  0.00    +0.033 HD
ATOM     17  H   UNL A   1      -4.362  -4.493   0.171  0.00  0.00    +0.033 HD
BRANCH  15  18
ATOM     18  C   UNL A   1      -3.602  -2.583  -0.442  0.00  0.00    -0.043 A 
ATOM     19  C   UNL A   1      -4.005  -1.265  -0.719  0.00  0.00    -0.013 A 
ATOM     20  C   UNL A   1      -2.472  -3.069  -1.114  0.00  0.00    -0.055 A 
ATOM     21  C   UNL A   1      -3.246  -0.406  -1.549  0.00  0.00    +0.162 A 
ATOM     22  C   UNL A   1      -1.737  -2.241  -1.970  0.00  0.00    -0.016 A 
ATOM     23  C   UNL A   1      -2.093  -0.902  -2.174  0.00  0.00    +0.162 A 
ATOM     24  H   UNL A   1      -4.925  -0.905  -0.274  0.00  0.00    +0.066 HD
ATOM     25  H   UNL A   1      -2.139  -4.094  -0.967  0.00  0.00    +0.062 HD
ATOM     26  H   UNL A   1      -0.858  -2.642  -2.472  0.00  0.00    +0.066 HD
BRANCH  23  27
ATOM     27  O   UNL A   1      -1.218  -0.245  -3.003  0.00  0.00    -0.491 OA
BRANCH  27  28
ATOM     28  C   UNL A   1      -0.249   0.625  -2.430  0.00  0.00    +0.079 C 
ATOM     29  H   UNL A   1      -0.672   1.197  -1.601  0.00  0.00    +0.066 HD
ATOM     30  H   UNL A   1       0.661   0.085  -2.143  0.00  0.00    +0.066 HD
ATOM     31  H   UNL A   1       0.039   1.352  -3.197  0.00  0.00    +0.066 HD
ENDBRANCH  27  28
ENDBRANCH  23  27
BRANCH  21  32
ATOM     32  O   UNL A   1      -3.581   0.900  -1.772  0.00  0.00    -0.491 OA
BRANCH  32  33
ATOM     33  C   UNL A   1      -3.532   1.831  -0.702  0.00  0.00    +0.079 C 
ATOM     34  H   UNL A   1      -3.573   1.305   0.257  0.00  0.00    +0.066 HD
ATOM     35  H   UNL A   1      -2.664   2.497  -0.756  0.00  0.00    +0.066 HD
ATOM     36  H   UNL A   1      -4.419   2.466  -0.779  0.00  0.00    +0.066 HD
ENDBRANCH  32  33
ENDBRANCH  21  32
ENDBRANCH  15  18
ENDBRANCH  12  15
ENDBRANCH   7  12
ENDBRANCH   4   7
ENDBRANCH   1   4
BRANCH   1  37
ATOM     37  C   UNL A   1      -9.453  -1.928   2.619  0.00  0.00    -0.029 C 
ATOM     38  H   UNL A   1     -10.503  -2.111   2.347  0.00  0.00    +0.028 HD
ATOM     39  H   UNL A   1      -9.036  -1.411   1.746  0.00  0.00    +0.028 HD
BRANCH  37  40
ATOM     40  C   UNL A   1      -9.391  -0.949   3.911  0.00  0.00    +0.085 C 
BRANCH  40  41
ATOM     41  C   UNL A   1      -8.692   0.329   3.364  0.00  0.00    -0.024 A 
ATOM     42  C   UNL A   1      -7.289   0.330   3.202  0.00  0.00    -0.012 A 
ATOM     43  C   UNL A   1      -9.381   1.443   2.860  0.00  0.00    -0.053 A 
ATOM     44  C   UNL A   1      -6.600   1.346   2.517  0.00  0.00    +0.162 A 
ATOM     45  C   UNL A   1      -8.698   2.500   2.250  0.00  0.00    -0.016 A 
ATOM     46  C   UNL A   1      -7.311   2.467   2.079  0.00  0.00    +0.162 A 
ATOM     47  H   UNL A   1      -6.717  -0.513   3.586  0.00  0.00    +0.066 HD
ATOM     48  H   UNL A   1     -10.464   1.513   2.889  0.00  0.00    +0.062 HD
ATOM     49  H   UNL A   1      -9.261   3.353   1.875  0.00  0.00    +0.066 HD
BRANCH  44  50
ATOM     50  O   UNL A   1      -5.259   1.252   2.250  0.00  0.00    -0.491 OA
BRANCH  50  51
ATOM     51  C   UNL A   1      -4.656   0.015   2.626  0.00  0.00    +0.079 C 
ATOM     52  H   UNL A   1      -3.612   0.212   2.883  0.00  0.00    +0.066 HD
ATOM     53  H   UNL A   1      -5.142  -0.402   3.514  0.00  0.00    +0.066 HD
ATOM     54  H   UNL A   1      -4.664  -0.710   1.801  0.00  0.00    +0.066 HD
ENDBRANCH  50  51
ENDBRANCH  44  50
BRANCH  46  55
ATOM     55  O   UNL A   1      -6.821   3.544   1.387  0.00  0.00    -0.491 OA
BRANCH  55  56
ATOM     56  C   UNL A   1      -6.250   4.589   2.164  0.00  0.00    +0.079 C 
ATOM     57  H   UNL A   1      -5.160   4.632   2.064  0.00  0.00    +0.066 HD
ATOM     58  H   UNL A   1      -6.716   5.549   1.924  0.00  0.00    +0.066 HD
ATOM     59  H   UNL A   1      -6.478   4.377   3.214  0.00  0.00    +0.066 HD
ENDBRANCH  55  56
ENDBRANCH  46  55
ENDBRANCH  40  41
BRANCH  40  60
ATOM     60  C   UNL A   1     -10.856  -0.722   4.456  0.00  0.00    -0.024 C 
ATOM     61  H   UNL A   1     -11.419  -0.169   3.693  0.00  0.00    +0.031 HD
BRANCH  60  62
ATOM     62  C   UNL A   1     -10.956   0.113   5.742  0.00  0.00    -0.061 C 
ATOM     63  H   UNL A   1     -11.847  -0.128   6.334  0.00  0.00    +0.023 HD
ATOM     64  H   UNL A   1     -10.096  -0.093   6.388  0.00  0.00    +0.023 HD
ATOM     65  H   UNL A   1     -10.972   1.185   5.533  0.00  0.00    +0.023 HD
ENDBRANCH  60  62
BRANCH  60  66
ATOM     66  C   UNL A   1     -11.653  -2.020   4.682  0.00  0.00    -0.061 C 
ATOM     67  H   UNL A   1     -12.299  -2.249   3.831  0.00  0.00    +0.023 HD
ATOM     68  H   UNL A   1     -10.969  -2.867   4.820  0.00  0.00    +0.023 HD
ATOM     69  H   UNL A   1     -12.266  -1.975   5.585  0.00  0.00    +0.023 HD
ENDBRANCH  60  66
ENDBRANCH  40  60
BRANCH  40  71
ATOM     70  N   UNL A   1      -7.749  -2.138   5.815  0.00  0.00    -0.196 NA
ATOM     71  C   UNL A   1      -8.494  -1.599   4.951  0.00  0.00    +0.074 C 
ENDBRANCH  40  71
ENDBRANCH  37  40
ENDBRANCH   1  37
TORSDOF 21
ENDMDL
MODEL 6
REMARK VINA RESULT:    -5.783      3.218      5.092
REMARK INTER + INTRA:         -13.526
REMARK INTER:                 -11.928
REMARK INTRA:                  -1.597
REMARK UNBOUND:                -1.825
REMARK  Name = 2520
REMARK  21 active torsions:
REMARK  status: ('A' for Active; 'I' for Inactive)
REMARK    1  A    between atoms: O_1  and  C_19
REMARK    2  A    between atoms: O_1  and  C_28
REMARK    3  A    between atoms: O_2  and  C_23
REMARK    4  A    between atoms: O_2  and  C_31
REMARK    5  A    between atoms: O_3  and  C_27
REMARK    6  A    between atoms: O_3  and  C_32
REMARK    7  A    between atoms: O_4  and  C_30
REMARK    8  A    between atoms: O_4  and  C_33
REMARK    9  A    between atoms: N_5  and  C_12
REMARK   10  A    between atoms: N_5  and  C_18
REMARK   11  A    between atoms: N_5  and  C_20
REMARK   12  A    between atoms: C_7  and  C_8
REMARK   13  A    between atoms: C_7  and  C_9
REMARK   14  A    between atoms: C_7  and  C_11
REMARK   15  A    between atoms: C_7  and  C_15
REMARK   16  A    between atoms: C_8  and  C_13
REMARK   17  A    between atoms: C_8  and  C_14
REMARK   18  A    between atoms: C_9  and  C_10
REMARK   19  A    between atoms: C_10  and  C_12
REMARK   20  A    between atoms: C_18  and  C_22
REMARK   21  A    between atoms: C_22  and  C_24
REMARK                            x       y       z     vdW  Elec       q    Type
REMARK                         _______ _______ _______ _____ _____    ______ ____
ROOT
ATOM      1  C   UNL A   1      -8.660  -3.272   3.675  0.00  0.00    -0.038 C 
ATOM      2  H   UNL A   1      -7.903  -2.651   4.165  0.00  0.00    +0.028 HD
ATOM      3  H   UNL A   1      -9.047  -3.972   4.420  0.00  0.00    +0.028 HD
ENDROOT
BRANCH   1   4
ATOM      4  C   UNL A   1      -7.952  -4.095   2.569  0.00  0.00    -0.001 C 
ATOM      5  H   UNL A   1      -7.744  -5.115   2.918  0.00  0.00    +0.043 HD
ATOM      6  H   UNL A   1      -8.668  -4.192   1.741  0.00  0.00    +0.043 HD
BRANCH   4   7
ATOM      7  N   UNL A   1      -6.703  -3.452   2.061  0.00  0.00    -0.305 NA
BRANCH   7   8
ATOM      8  C   UNL A   1      -6.129  -4.259   0.978  0.00  0.00    -0.013 C 
ATOM      9  H   UNL A   1      -6.059  -3.707   0.033  0.00  0.00    +0.039 HD
ATOM     10  H   UNL A   1      -5.126  -4.612   1.244  0.00  0.00    +0.039 HD
ATOM     11  H   UNL A   1      -6.716  -5.169   0.812  0.00  0.00    +0.039 HD
ENDBRANCH   7   8
BRANCH   7  12
ATOM     12  C   UNL A   1      -5.721  -3.196   3.153  0.00  0.00    +0.003 C 
ATOM     13  H   UNL A   1      -6.117  -3.667   4.059  0.00  0.00    +0.043 HD
ATOM     14  H   UNL A   1      -4.775  -3.693   2.907  0.00  0.00    +0.043 HD
BRANCH  12  15
ATOM     15  C   UNL A   1      -5.398  -1.711   3.510  0.00  0.00    -0.015 C 
ATOM     16  H   UNL A   1      -6.345  -1.204   3.739  0.00  0.00    +0.033 HD
ATOM     17  H   UNL A   1      -4.779  -1.677   4.414  0.00  0.00    +0.033 HD
BRANCH  15  18
ATOM     18  C   UNL A   1      -4.737  -0.850   2.435  0.00  0.00    -0.043 A 
ATOM     19  C   UNL A   1      -3.768  -1.326   1.536  0.00  0.00    -0.013 A 
ATOM     20  C   UNL A   1      -5.157   0.480   2.289  0.00  0.00    -0.055 A 
ATOM     21  C   UNL A   1      -3.308  -0.550   0.446  0.00  0.00    +0.162 A 
ATOM     22  C   UNL A   1      -4.679   1.270   1.239  0.00  0.00    -0.016 A 
ATOM     23  C   UNL A   1      -3.778   0.762   0.294  0.00  0.00    +0.162 A 
ATOM     24  H   UNL A   1      -3.370  -2.322   1.690  0.00  0.00    +0.066 HD
ATOM     25  H   UNL A   1      -5.877   0.912   2.982  0.00  0.00    +0.062 HD
ATOM     26  H   UNL A   1      -5.029   2.297   1.144  0.00  0.00    +0.066 HD
BRANCH  23  27
ATOM     27  O   UNL A   1      -3.472   1.675  -0.685  0.00  0.00    -0.491 OA
BRANCH  27  28
ATOM     28  C   UNL A   1      -3.831   3.038  -0.492  0.00  0.00    +0.079 C 
ATOM     29  H   UNL A   1      -3.389   3.676  -1.261  0.00  0.00    +0.066 HD
ATOM     30  H   UNL A   1      -4.917   3.165  -0.418  0.00  0.00    +0.066 HD
ATOM     31  H   UNL A   1      -3.405   3.361   0.464  0.00  0.00    +0.066 HD
ENDBRANCH  27  28
ENDBRANCH  23  27
BRANCH  21  32
ATOM     32  O   UNL A   1      -2.421  -1.020  -0.482  0.00  0.00    -0.491 OA
BRANCH  32  33
ATOM     33  C   UNL A   1      -2.526  -2.360  -0.939  0.00  0.00    +0.079 C 
ATOM     34  H   UNL A   1      -3.544  -2.730  -0.786  0.00  0.00    +0.066 HD
ATOM     35  H   UNL A   1      -2.209  -2.480  -1.981  0.00  0.00    +0.066 HD
ATOM     36  H   UNL A   1      -1.848  -2.967  -0.333  0.00  0.00    +0.066 HD
ENDBRANCH  32  33
ENDBRANCH  21  32
ENDBRANCH  15  18
ENDBRANCH  12  15
ENDBRANCH   7  12
ENDBRANCH   4   7
ENDBRANCH   1   4
BRANCH   1  37
ATOM     37  C   UNL A   1      -9.826  -2.359   3.167  0.00  0.00    -0.029 C 
ATOM     38  H   UNL A   1     -10.633  -3.016   2.812  0.00  0.00    +0.028 HD
ATOM     39  H   UNL A   1      -9.497  -1.827   2.266  0.00  0.00    +0.028 HD
BRANCH  37  40
ATOM     40  C   UNL A   1     -10.424  -1.296   4.237  0.00  0.00    +0.085 C 
BRANCH  40  41
ATOM     41  C   UNL A   1     -11.112  -2.201   5.300  0.00  0.00    -0.024 A 
ATOM     42  C   UNL A   1     -12.089  -3.132   4.884  0.00  0.00    -0.012 A 
ATOM     43  C   UNL A   1     -10.710  -2.274   6.643  0.00  0.00    -0.053 A 
ATOM     44  C   UNL A   1     -12.600  -4.131   5.728  0.00  0.00    +0.162 A 
ATOM     45  C   UNL A   1     -11.273  -3.211   7.515  0.00  0.00    -0.016 A 
ATOM     46  C   UNL A   1     -12.220  -4.139   7.074  0.00  0.00    +0.162 A 
ATOM     47  H   UNL A   1     -12.433  -3.103   3.851  0.00  0.00    +0.066 HD
ATOM     48  H   UNL A   1      -9.929  -1.637   7.046  0.00  0.00    +0.062 HD
ATOM     49  H   UNL A   1     -10.944  -3.237   8.553  0.00  0.00    +0.066 HD
BRANCH  44  50
ATOM     50  O   UNL A   1     -13.439  -5.109   5.261  0.00  0.00    -0.491 OA
BRANCH  50  51
ATOM     51  C   UNL A   1     -12.795  -6.324   4.882  0.00  0.00    +0.079 C 
ATOM     52  H   UNL A   1     -12.198  -6.670   5.729  0.00  0.00    +0.066 HD
ATOM     53  H   UNL A   1     -13.532  -7.102   4.658  0.00  0.00    +0.066 HD
ATOM     54  H   UNL A   1     -12.114  -6.178   4.032  0.00  0.00    +0.066 HD
ENDBRANCH  50  51
ENDBRANCH  44  50
BRANCH  46  55
ATOM     55  O   UNL A   1     -12.598  -5.034   8.040  0.00  0.00    -0.491 OA
BRANCH  55  56
ATOM     56  C   UNL A   1     -13.872  -4.823   8.635  0.00  0.00    +0.079 C 
ATOM     57  H   UNL A   1     -14.317  -5.754   9.004  0.00  0.00    +0.066 HD
ATOM     58  H   UNL A   1     -13.812  -4.066   9.422  0.00  0.00    +0.066 HD
ATOM     59  H   UNL A   1     -14.534  -4.425   7.859  0.00  0.00    +0.066 HD
ENDBRANCH  55  56
ENDBRANCH  46  55
ENDBRANCH  40  41
BRANCH  40  60
ATOM     60  C   UNL A   1      -9.246  -0.401   4.789  0.00  0.00    -0.024 C 
ATOM     61  H   UNL A   1      -8.490  -1.068   5.223  0.00  0.00    +0.031 HD
BRANCH  60  62
ATOM     62  C   UNL A   1      -9.634   0.580   5.906  0.00  0.00    -0.061 C 
ATOM     63  H   UNL A   1      -8.847   0.693   6.661  0.00  0.00    +0.023 HD
ATOM     64  H   UNL A   1      -9.798   1.578   5.485  0.00  0.00    +0.023 HD
ATOM     65  H   UNL A   1     -10.549   0.275   6.418  0.00  0.00    +0.023 HD
ENDBRANCH  60  62
BRANCH  60  66
ATOM     66  C   UNL A   1      -8.502   0.400   3.705  0.00  0.00    -0.061 C 
ATOM     67  H   UNL A   1      -8.534  -0.107   2.737  0.00  0.00    +0.023 HD
ATOM     68  H   UNL A   1      -8.961   1.389   3.580  0.00  0.00    +0.023 HD
ATOM     69  H   UNL A   1      -7.458   0.582   3.971  0.00  0.00    +0.023 HD
ENDBRANCH  60  66
ENDBRANCH  40  60
BRANCH  40  71
ATOM     70  N   UNL A   1     -12.364   0.225   2.947  0.00  0.00    -0.196 NA
ATOM     71  C   UNL A   1     -11.484  -0.465   3.532  0.00  0.00    +0.074 C 
ENDBRANCH  40  71
ENDBRANCH  37  40
ENDBRANCH   1  37
TORSDOF 21
ENDMDL
MODEL 7
REMARK VINA RESULT:    -5.668      3.536      5.277
REMARK INTER + INTRA:         -13.292
REMARK INTER:                 -12.705
REMARK INTRA:                  -0.587
REMARK UNBOUND:                -1.825
REMARK  Name = 2520
REMARK  21 active torsions:
REMARK  status: ('A' for Active; 'I' for Inactive)
REMARK    1  A    between atoms: O_1  and  C_19
REMARK    2  A    between atoms: O_1  and  C_28
REMARK    3  A    between atoms: O_2  and  C_23
REMARK    4  A    between atoms: O_2  and  C_31
REMARK    5  A    between atoms: O_3  and  C_27
REMARK    6  A    between atoms: O_3  and  C_32
REMARK    7  A    between atoms: O_4  and  C_30
REMARK    8  A    between atoms: O_4  and  C_33
REMARK    9  A    between atoms: N_5  and  C_12
REMARK   10  A    between atoms: N_5  and  C_18
REMARK   11  A    between atoms: N_5  and  C_20
REMARK   12  A    between atoms: C_7  and  C_8
REMARK   13  A    between atoms: C_7  and  C_9
REMARK   14  A    between atoms: C_7  and  C_11
REMARK   15  A    between atoms: C_7  and  C_15
REMARK   16  A    between atoms: C_8  and  C_13
REMARK   17  A    between atoms: C_8  and  C_14
REMARK   18  A    between atoms: C_9  and  C_10
REMARK   19  A    between atoms: C_10  and  C_12
REMARK   20  A    between atoms: C_18  and  C_22
REMARK   21  A    between atoms: C_22  and  C_24
REMARK                            x       y       z     vdW  Elec       q    Type
REMARK                         _______ _______ _______ _____ _____    ______ ____
ROOT
ATOM      1  C   UNL A   1      -8.243  -3.202   4.114  0.00  0.00    -0.038 C 
ATOM      2  H   UNL A   1      -7.785  -2.208   4.094  0.00  0.00    +0.028 HD
ATOM      3  H   UNL A   1      -7.966  -3.676   5.059  0.00  0.00    +0.028 HD
ENDROOT
BRANCH   1   4
ATOM      4  C   UNL A   1      -7.620  -4.032   2.963  0.00  0.00    -0.001 C 
ATOM      5  H   UNL A   1      -7.190  -4.967   3.349  0.00  0.00    +0.043 HD
ATOM      6  H   UNL A   1      -8.445  -4.324   2.301  0.00  0.00    +0.043 HD
BRANCH   4   7
ATOM      7  N   UNL A   1      -6.602  -3.277   2.172  0.00  0.00    -0.305 NA
BRANCH   7   8
ATOM      8  C   UNL A   1      -6.047  -4.136   1.120  0.00  0.00    -0.013 C 
ATOM      9  H   UNL A   1      -6.321  -5.189   1.248  0.00  0.00    +0.039 HD
ATOM     10  H   UNL A   1      -6.386  -3.811   0.130  0.00  0.00    +0.039 HD
ATOM     11  H   UNL A   1      -4.955  -4.058   1.085  0.00  0.00    +0.039 HD
ENDBRANCH   7   8
BRANCH   7  12
ATOM     12  C   UNL A   1      -5.540  -2.692   3.040  0.00  0.00    +0.003 C 
ATOM     13  H   UNL A   1      -5.789  -2.951   4.074  0.00  0.00    +0.043 HD
ATOM     14  H   UNL A   1      -4.581  -3.167   2.801  0.00  0.00    +0.043 HD
BRANCH  12  15
ATOM     15  C   UNL A   1      -5.329  -1.146   2.991  0.00  0.00    -0.015 C 
ATOM     16  H   UNL A   1      -6.318  -0.669   2.954  0.00  0.00    +0.033 HD
ATOM     17  H   UNL A   1      -4.838  -0.813   3.913  0.00  0.00    +0.033 HD
BRANCH  15  18
ATOM     18  C   UNL A   1      -4.567  -0.570   1.798  0.00  0.00    -0.043 A 
ATOM     19  C   UNL A   1      -4.773   0.724   1.289  0.00  0.00    -0.013 A 
ATOM     20  C   UNL A   1      -3.560  -1.346   1.208  0.00  0.00    -0.055 A 
ATOM     21  C   UNL A   1      -3.930   1.285   0.300  0.00  0.00    +0.162 A 
ATOM     22  C   UNL A   1      -2.747  -0.816   0.200  0.00  0.00    -0.016 A 
ATOM     23  C   UNL A   1      -2.899   0.504  -0.243  0.00  0.00    +0.162 A 
ATOM     24  H   UNL A   1      -5.603   1.302   1.675  0.00  0.00    +0.066 HD
ATOM     25  H   UNL A   1      -3.383  -2.368   1.538  0.00  0.00    +0.062 HD
ATOM     26  H   UNL A   1      -1.965  -1.438  -0.235  0.00  0.00    +0.066 HD
BRANCH  23  27
ATOM     27  O   UNL A   1      -1.973   0.850  -1.196  0.00  0.00    -0.491 OA
BRANCH  27  28
ATOM     28  C   UNL A   1      -1.400  -0.173  -2.002  0.00  0.00    +0.079 C 
ATOM     29  H   UNL A   1      -2.003  -0.356  -2.896  0.00  0.00    +0.066 HD
ATOM     30  H   UNL A   1      -0.353   0.039  -2.243  0.00  0.00    +0.066 HD
ATOM     31  H   UNL A   1      -1.415  -1.101  -1.420  0.00  0.00    +0.066 HD
ENDBRANCH  27  28
ENDBRANCH  23  27
BRANCH  21  32
ATOM     32  O   UNL A   1      -4.067   2.565  -0.157  0.00  0.00    -0.491 OA
BRANCH  32  33
ATOM     33  C   UNL A   1      -4.815   2.814  -1.338  0.00  0.00    +0.079 C 
ATOM     34  H   UNL A   1      -4.621   2.032  -2.078  0.00  0.00    +0.066 HD
ATOM     35  H   UNL A   1      -5.888   2.926  -1.146  0.00  0.00    +0.066 HD
ATOM     36  H   UNL A   1      -4.469   3.766  -1.750  0.00  0.00    +0.066 HD
ENDBRANCH  32  33
ENDBRANCH  21  32
ENDBRANCH  15  18
ENDBRANCH  12  15
ENDBRANCH   7  12
ENDBRANCH   4   7
ENDBRANCH   1   4
BRANCH   1  37
ATOM     37  C   UNL A   1      -9.800  -3.054   4.044  0.00  0.00    -0.029 C 
ATOM     38  H   UNL A   1     -10.226  -4.061   3.921  0.00  0.00    +0.028 HD
ATOM     39  H   UNL A   1     -10.069  -2.533   3.117  0.00  0.00    +0.028 HD
BRANCH  37  40
ATOM     40  C   UNL A   1     -10.508  -2.318   5.305  0.00  0.00    +0.085 C 
BRANCH  40  41
ATOM     41  C   UNL A   1     -11.505  -3.389   5.836  0.00  0.00    -0.024 A 
ATOM     42  C   UNL A   1     -11.904  -3.348   7.190  0.00  0.00    -0.012 A 
ATOM     43  C   UNL A   1     -12.173  -4.311   5.015  0.00  0.00    -0.053 A 
ATOM     44  C   UNL A   1     -12.955  -4.128   7.701  0.00  0.00    +0.162 A 
ATOM     45  C   UNL A   1     -13.164  -5.152   5.531  0.00  0.00    -0.016 A 
ATOM     46  C   UNL A   1     -13.559  -5.076   6.870  0.00  0.00    +0.162 A 
ATOM     47  H   UNL A   1     -11.404  -2.651   7.861  0.00  0.00    +0.066 HD
ATOM     48  H   UNL A   1     -11.976  -4.384   3.950  0.00  0.00    +0.062 HD
ATOM     49  H   UNL A   1     -13.659  -5.862   4.869  0.00  0.00    +0.066 HD
BRANCH  44  50
ATOM     50  O   UNL A   1     -13.415  -3.965   8.981  0.00  0.00    -0.491 OA
BRANCH  50  51
ATOM     51  C   UNL A   1     -13.964  -2.679   9.265  0.00  0.00    +0.079 C 
ATOM     52  H   UNL A   1     -13.572  -1.973   8.529  0.00  0.00    +0.066 HD
ATOM     53  H   UNL A   1     -15.055  -2.691   9.162  0.00  0.00    +0.066 HD
ATOM     54  H   UNL A   1     -13.671  -2.320  10.260  0.00  0.00    +0.066 HD
ENDBRANCH  50  51
ENDBRANCH  44  50
BRANCH  46  55
ATOM     55  O   UNL A   1     -14.599  -5.911   7.181  0.00  0.00    -0.491 OA
BRANCH  55  56
ATOM     56  C   UNL A   1     -14.930  -6.899   6.212  0.00  0.00    +0.079 C 
ATOM     57  H   UNL A   1     -16.012  -7.002   6.077  0.00  0.00    +0.066 HD
ATOM     58  H   UNL A   1     -14.423  -6.697   5.265  0.00  0.00    +0.066 HD
ATOM     59  H   UNL A   1     -14.550  -7.857   6.580  0.00  0.00    +0.066 HD
ENDBRANCH  55  56
ENDBRANCH  46  55
ENDBRANCH  40  41
BRANCH  40  60
ATOM     60  C   UNL A   1      -9.397  -1.878   6.337  0.00  0.00    -0.024 C 
ATOM     61  H   UNL A   1      -8.437  -1.843   5.805  0.00  0.00    +0.031 HD
BRANCH  60  62
ATOM     62  C   UNL A   1      -9.187  -2.829   7.524  0.00  0.00    -0.061 C 
ATOM     63  H   UNL A   1     -10.131  -3.148   7.982  0.00  0.00    +0.023 HD
ATOM     64  H   UNL A   1      -8.688  -3.744   7.185  0.00  0.00    +0.023 HD
ATOM     65  H   UNL A   1      -8.571  -2.378   8.305  0.00  0.00    +0.023 HD
ENDBRANCH  60  62
BRANCH  60  66
ATOM     66  C   UNL A   1      -9.592  -0.460   6.906  0.00  0.00    -0.061 C 
ATOM     67  H   UNL A   1     -10.541  -0.023   6.582  0.00  0.00    +0.023 HD
ATOM     68  H   UNL A   1      -9.594  -0.487   8.002  0.00  0.00    +0.023 HD
ATOM     69  H   UNL A   1      -8.781   0.214   6.620  0.00  0.00    +0.023 HD
ENDBRANCH  60  66
ENDBRANCH  40  60
BRANCH  40  71
ATOM     70  N   UNL A   1     -11.945  -0.142   4.337  0.00  0.00    -0.196 NA
ATOM     71  C   UNL A   1     -11.293  -1.129   4.776  0.00  0.00    +0.074 C 
ENDBRANCH  40  71
ENDBRANCH  37  40
ENDBRANCH   1  37
TORSDOF 21
ENDMDL
MODEL 8
REMARK VINA RESULT:    -5.571     25.938     30.176
REMARK INTER + INTRA:         -13.095
REMARK INTER:                  -9.815
REMARK INTRA:                  -3.280
REMARK UNBOUND:                -1.825
REMARK  Name = 2520
REMARK  21 active torsions:
REMARK  status: ('A' for Active; 'I' for Inactive)
REMARK    1  A    between atoms: O_1  and  C_19
REMARK    2  A    between atoms: O_1  and  C_28
REMARK    3  A    between atoms: O_2  and  C_23
REMARK    4  A    between atoms: O_2  and  C_31
REMARK    5  A    between atoms: O_3  and  C_27
REMARK    6  A    between atoms: O_3  and  C_32
REMARK    7  A    between atoms: O_4  and  C_30
REMARK    8  A    between atoms: O_4  and  C_33
REMARK    9  A    between atoms: N_5  and  C_12
REMARK   10  A    between atoms: N_5  and  C_18
REMARK   11  A    between atoms: N_5  and  C_20
REMARK   12  A    between atoms: C_7  and  C_8
REMARK   13  A    between atoms: C_7  and  C_9
REMARK   14  A    between atoms: C_7  and  C_11
REMARK   15  A    between atoms: C_7  and  C_15
REMARK   16  A    between atoms: C_8  and  C_13
REMARK   17  A    between atoms: C_8  and  C_14
REMARK   18  A    between atoms: C_9  and  C_10
REMARK   19  A    between atoms: C_10  and  C_12
REMARK   20  A    between atoms: C_18  and  C_22
REMARK   21  A    between atoms: C_22  and  C_24
REMARK                            x       y       z     vdW  Elec       q    Type
REMARK                         _______ _______ _______ _____ _____    ______ ____
ROOT
ATOM      1  C   UNL A   1     -23.310  -2.780  23.397  0.00  0.00    -0.038 C 
ATOM      2  H   UNL A   1     -22.276  -3.134  23.443  0.00  0.00    +0.028 HD
ATOM      3  H   UNL A   1     -23.839  -3.186  24.264  0.00  0.00    +0.028 HD
ENDROOT
BRANCH   1   4
ATOM      4  C   UNL A   1     -23.957  -3.377  22.121  0.00  0.00    -0.001 C 
ATOM      5  H   UNL A   1     -25.046  -3.235  22.137  0.00  0.00    +0.043 HD
ATOM      6  H   UNL A   1     -23.582  -2.790  21.273  0.00  0.00    +0.043 HD
BRANCH   4   7
ATOM      7  N   UNL A   1     -23.621  -4.816  21.905  0.00  0.00    -0.305 NA
BRANCH   7   8
ATOM      8  C   UNL A   1     -23.017  -4.996  20.580  0.00  0.00    -0.013 C 
ATOM      9  H   UNL A   1     -23.405  -4.287  19.841  0.00  0.00    +0.039 HD
ATOM     10  H   UNL A   1     -21.928  -4.881  20.628  0.00  0.00    +0.039 HD
ATOM     11  H   UNL A   1     -23.178  -6.015  20.209  0.00  0.00    +0.039 HD
ENDBRANCH   7   8
BRANCH   7  12
ATOM     12  C   UNL A   1     -24.802  -5.704  22.110  0.00  0.00    +0.003 C 
ATOM     13  H   UNL A   1     -25.120  -6.051  21.122  0.00  0.00    +0.043 HD
ATOM     14  H   UNL A   1     -24.492  -6.584  22.687  0.00  0.00    +0.043 HD
BRANCH  12  15
ATOM     15  C   UNL A   1     -26.057  -5.096  22.811  0.00  0.00    -0.015 C 
ATOM     16  H   UNL A   1     -25.918  -4.008  22.871  0.00  0.00    +0.033 HD
ATOM     17  H   UNL A   1     -26.946  -5.281  22.196  0.00  0.00    +0.033 HD
BRANCH  15  18
ATOM     18  C   UNL A   1     -26.356  -5.536  24.243  0.00  0.00    -0.043 A 
ATOM     19  C   UNL A   1     -25.401  -5.547  25.274  0.00  0.00    -0.013 A 
ATOM     20  C   UNL A   1     -27.670  -5.896  24.573  0.00  0.00    -0.055 A 
ATOM     21  C   UNL A   1     -25.754  -5.792  26.623  0.00  0.00    +0.162 A 
ATOM     22  C   UNL A   1     -28.023  -6.180  25.897  0.00  0.00    -0.016 A 
ATOM     23  C   UNL A   1     -27.085  -6.104  26.935  0.00  0.00    +0.162 A 
ATOM     24  H   UNL A   1     -24.366  -5.357  25.018  0.00  0.00    +0.066 HD
ATOM     25  H   UNL A   1     -28.441  -5.941  23.806  0.00  0.00    +0.062 HD
ATOM     26  H   UNL A   1     -29.053  -6.448  26.127  0.00  0.00    +0.066 HD
BRANCH  23  27
ATOM     27  O   UNL A   1     -27.638  -6.366  28.164  0.00  0.00    -0.491 OA
BRANCH  27  28
ATOM     28  C   UNL A   1     -27.979  -7.708  28.493  0.00  0.00    +0.079 C 
ATOM     29  H   UNL A   1     -28.938  -7.992  28.052  0.00  0.00    +0.066 HD
ATOM     30  H   UNL A   1     -27.176  -8.406  28.229  0.00  0.00    +0.066 HD
ATOM     31  H   UNL A   1     -28.106  -7.761  29.579  0.00  0.00    +0.066 HD
ENDBRANCH  27  28
ENDBRANCH  23  27
BRANCH  21  32
ATOM     32  O   UNL A   1     -24.855  -5.736  27.650  0.00  0.00    -0.491 OA
BRANCH  32  33
ATOM     33  C   UNL A   1     -23.977  -6.828  27.877  0.00  0.00    +0.079 C 
ATOM     34  H   UNL A   1     -24.019  -7.525  27.035  0.00  0.00    +0.066 HD
ATOM     35  H   UNL A   1     -22.949  -6.512  28.083  0.00  0.00    +0.066 HD
ATOM     36  H   UNL A   1     -24.329  -7.352  28.770  0.00  0.00    +0.066 HD
ENDBRANCH  32  33
ENDBRANCH  21  32
ENDBRANCH  15  18
ENDBRANCH  12  15
ENDBRANCH   7  12
ENDBRANCH   4   7
ENDBRANCH   1   4
BRANCH   1  37
ATOM     37  C   UNL A   1     -23.324  -1.216  23.467  0.00  0.00    -0.029 C 
ATOM     38  H   UNL A   1     -23.952  -0.851  22.641  0.00  0.00    +0.028 HD
ATOM     39  H   UNL A   1     -22.322  -0.838  23.229  0.00  0.00    +0.028 HD
BRANCH  37  40
ATOM     40  C   UNL A   1     -23.832  -0.564  24.863  0.00  0.00    +0.085 C 
BRANCH  40  41
ATOM     41  C   UNL A   1     -25.166  -1.314  25.148  0.00  0.00    -0.024 A 
ATOM     42  C   UNL A   1     -25.379  -1.880  26.424  0.00  0.00    -0.012 A 
ATOM     43  C   UNL A   1     -26.258  -1.332  24.266  0.00  0.00    -0.053 A 
ATOM     44  C   UNL A   1     -26.624  -2.379  26.840  0.00  0.00    +0.162 A 
ATOM     45  C   UNL A   1     -27.479  -1.901  24.639  0.00  0.00    -0.016 A 
ATOM     46  C   UNL A   1     -27.674  -2.432  25.917  0.00  0.00    +0.162 A 
ATOM     47  H   UNL A   1     -24.554  -1.893  27.135  0.00  0.00    +0.066 HD
ATOM     48  H   UNL A   1     -26.211  -0.876  23.281  0.00  0.00    +0.062 HD
ATOM     49  H   UNL A   1     -28.305  -1.904  23.929  0.00  0.00    +0.066 HD
BRANCH  44  50
ATOM     50  O   UNL A   1     -26.841  -2.790  28.129  0.00  0.00    -0.491 OA
BRANCH  50  51
ATOM     51  C   UNL A   1     -25.876  -2.335  29.076  0.00  0.00    +0.079 C 
ATOM     52  H   UNL A   1     -26.013  -1.259  29.210  0.00  0.00    +0.066 HD
ATOM     53  H   UNL A   1     -26.031  -2.812  30.050  0.00  0.00    +0.066 HD
ATOM     54  H   UNL A   1     -24.849  -2.498  28.723  0.00  0.00    +0.066 HD
ENDBRANCH  50  51
ENDBRANCH  44  50
BRANCH  46  55
ATOM     55  O   UNL A   1     -28.954  -2.868  26.138  0.00  0.00    -0.491 OA
BRANCH  55  56
ATOM     56  C   UNL A   1     -29.887  -2.650  25.088  0.00  0.00    +0.079 C 
ATOM     57  H   UNL A   1     -29.499  -2.972  24.115  0.00  0.00    +0.066 HD
ATOM     58  H   UNL A   1     -30.845  -3.125  25.316  0.00  0.00    +0.066 HD
ATOM     59  H   UNL A   1     -30.069  -1.572  25.031  0.00  0.00    +0.066 HD
ENDBRANCH  55  56
ENDBRANCH  46  55
ENDBRANCH  40  41
BRANCH  40  60
ATOM     60  C   UNL A   1     -22.714  -0.759  25.961  0.00  0.00    -0.024 C 
ATOM     61  H   UNL A   1     -22.869  -1.739  26.431  0.00  0.00    +0.031 HD
BRANCH  60  62
ATOM     62  C   UNL A   1     -22.731   0.266  27.105  0.00  0.00    -0.061 C 
ATOM     63  H   UNL A   1     -22.005   1.074  26.960  0.00  0.00    +0.023 HD
ATOM     64  H   UNL A   1     -23.714   0.746  27.160  0.00  0.00    +0.023 HD
ATOM     65  H   UNL A   1     -22.529  -0.199  28.073  0.00  0.00    +0.023 HD
ENDBRANCH  60  62
BRANCH  60  66
ATOM     66  C   UNL A   1     -21.281  -0.804  25.400  0.00  0.00    -0.061 C 
ATOM     67  H   UNL A   1     -20.807   0.181  25.425  0.00  0.00    +0.023 HD
ATOM     68  H   UNL A   1     -20.662  -1.489  25.992  0.00  0.00    +0.023 HD
ATOM     69  H   UNL A   1     -21.252  -1.179  24.374  0.00  0.00    +0.023 HD
ENDBRANCH  60  66
ENDBRANCH  40  60
BRANCH  40  71
ATOM     70  N   UNL A   1     -24.382   2.124  24.408  0.00  0.00    -0.196 NA
ATOM     71  C   UNL A   1     -24.133   0.905  24.614  0.00  0.00    +0.074 C 
ENDBRANCH  40  71
ENDBRANCH  37  40
ENDBRANCH   1  37
TORSDOF 21
ENDMDL
MODEL 9
REMARK VINA RESULT:    -5.402     27.536     31.498
REMARK INTER + INTRA:         -12.755
REMARK INTER:                 -10.929
REMARK INTRA:                  -1.825
REMARK UNBOUND:                -1.825
REMARK  Name = 2520
REMARK  21 active torsions:
REMARK  status: ('A' for Active; 'I' for Inactive)
REMARK    1  A    between atoms: O_1  and  C_19
REMARK    2  A    between atoms: O_1  and  C_28
REMARK    3  A    between atoms: O_2  and  C_23
REMARK    4  A    between atoms: O_2  and  C_31
REMARK    5  A    between atoms: O_3  and  C_27
REMARK    6  A    between atoms: O_3  and  C_32
REMARK    7  A    between atoms: O_4  and  C_30
REMARK    8  A    between atoms: O_4  and  C_33
REMARK    9  A    between atoms: N_5  and  C_12
REMARK   10  A    between atoms: N_5  and  C_18
REMARK   11  A    between atoms: N_5  and  C_20
REMARK   12  A    between atoms: C_7  and  C_8
REMARK   13  A    between atoms: C_7  and  C_9
REMARK   14  A    between atoms: C_7  and  C_11
REMARK   15  A    between atoms: C_7  and  C_15
REMARK   16  A    between atoms: C_8  and  C_13
REMARK   17  A    between atoms: C_8  and  C_14
REMARK   18  A    between atoms: C_9  and  C_10
REMARK   19  A    between atoms: C_10  and  C_12
REMARK   20  A    between atoms: C_18  and  C_22
REMARK   21  A    between atoms: C_22  and  C_24
REMARK                            x       y       z     vdW  Elec       q    Type
REMARK                         _______ _______ _______ _____ _____    ______ ____
ROOT
ATOM      1  C   UNL A   1     -24.415  -5.229  26.075  0.00  0.00    -0.038 C 
ATOM      2  H   UNL A   1     -24.351  -4.141  26.166  0.00  0.00    +0.028 HD
ATOM      3  H   UNL A   1     -23.400  -5.611  25.935  0.00  0.00    +0.028 HD
ENDROOT
BRANCH   1   4
ATOM      4  C   UNL A   1     -25.226  -5.549  24.794  0.00  0.00    -0.001 C 
ATOM      5  H   UNL A   1     -25.254  -6.632  24.613  0.00  0.00    +0.043 HD
ATOM      6  H   UNL A   1     -26.262  -5.243  24.991  0.00  0.00    +0.043 HD
BRANCH   4   7
ATOM      7  N   UNL A   1     -24.728  -4.830  23.583  0.00  0.00    -0.305 NA
BRANCH   7   8
ATOM      8  C   UNL A   1     -24.645  -5.756  22.448  0.00  0.00    -0.013 C 
ATOM      9  H   UNL A   1     -24.942  -6.777  22.716  0.00  0.00    +0.039 HD
ATOM     10  H   UNL A   1     -25.282  -5.420  21.622  0.00  0.00    +0.039 HD
ATOM     11  H   UNL A   1     -23.632  -5.782  22.033  0.00  0.00    +0.039 HD
ENDBRANCH   7   8
BRANCH   7  12
ATOM     12  C   UNL A   1     -23.432  -4.136  23.838  0.00  0.00    +0.003 C 
ATOM     13  H   UNL A   1     -23.260  -4.162  24.919  0.00  0.00    +0.043 HD
ATOM     14  H   UNL A   1     -22.624  -4.701  23.359  0.00  0.00    +0.043 HD
BRANCH  12  15
ATOM     15  C   UNL A   1     -23.302  -2.648  23.386  0.00  0.00    -0.015 C 
ATOM     16  H   UNL A   1     -22.519  -2.593  22.618  0.00  0.00    +0.033 HD
ATOM     17  H   UNL A   1     -24.241  -2.321  22.923  0.00  0.00    +0.033 HD
BRANCH  15  18
ATOM     18  C   UNL A   1     -22.896  -1.618  24.439  0.00  0.00    -0.043 A 
ATOM     19  C   UNL A   1     -23.638  -1.353  25.603  0.00  0.00    -0.013 A 
ATOM     20  C   UNL A   1     -21.682  -0.935  24.276  0.00  0.00    -0.055 A 
ATOM     21  C   UNL A   1     -23.143  -0.523  26.637  0.00  0.00    +0.162 A 
ATOM     22  C   UNL A   1     -21.202  -0.080  25.273  0.00  0.00    -0.016 A 
ATOM     23  C   UNL A   1     -21.904   0.113  26.470  0.00  0.00    +0.162 A 
ATOM     24  H   UNL A   1     -24.616  -1.806  25.702  0.00  0.00    +0.066 HD
ATOM     25  H   UNL A   1     -21.086  -1.074  23.376  0.00  0.00    +0.062 HD
ATOM     26  H   UNL A   1     -20.252   0.431  25.124  0.00  0.00    +0.066 HD
BRANCH  23  27
ATOM     27  O   UNL A   1     -21.243   0.944  27.340  0.00  0.00    -0.491 OA
BRANCH  27  28
ATOM     28  C   UNL A   1     -21.128   2.325  27.020  0.00  0.00    +0.079 C 
ATOM     29  H   UNL A   1     -20.671   2.466  26.037  0.00  0.00    +0.066 HD
ATOM     30  H   UNL A   1     -22.089   2.843  27.110  0.00  0.00    +0.066 HD
ATOM     31  H   UNL A   1     -20.449   2.779  27.749  0.00  0.00    +0.066 HD
ENDBRANCH  27  28
ENDBRANCH  23  27
BRANCH  21  32
ATOM     32  O   UNL A   1     -23.816  -0.310  27.807  0.00  0.00    -0.491 OA
BRANCH  32  33
ATOM     33  C   UNL A   1     -24.889   0.618  27.842  0.00  0.00    +0.079 C 
ATOM     34  H   UNL A   1     -25.840   0.099  27.694  0.00  0.00    +0.066 HD
ATOM     35  H   UNL A   1     -24.901   1.221  28.757  0.00  0.00    +0.066 HD
ATOM     36  H   UNL A   1     -24.748   1.314  27.010  0.00  0.00    +0.066 HD
ENDBRANCH  32  33
ENDBRANCH  21  32
ENDBRANCH  15  18
ENDBRANCH  12  15
ENDBRANCH   7  12
ENDBRANCH   4   7
ENDBRANCH   1   4
BRANCH   1  37
ATOM     37  C   UNL A   1     -25.014  -5.824  27.394  0.00  0.00    -0.029 C 
ATOM     38  H   UNL A   1     -24.208  -5.856  28.142  0.00  0.00    +0.028 HD
ATOM     39  H   UNL A   1     -25.269  -6.878  27.228  0.00  0.00    +0.028 HD
BRANCH  37  40
ATOM     40  C   UNL A   1     -26.296  -5.047  28.014  0.00  0.00    +0.085 C 
BRANCH  40  41
ATOM     41  C   UNL A   1     -26.208  -5.360  29.536  0.00  0.00    -0.024 A 
ATOM     42  C   UNL A   1     -27.347  -5.861  30.203  0.00  0.00    -0.012 A 
ATOM     43  C   UNL A   1     -25.014  -5.331  30.272  0.00  0.00    -0.053 A 
ATOM     44  C   UNL A   1     -27.303  -6.374  31.510  0.00  0.00    +0.162 A 
ATOM     45  C   UNL A   1     -24.974  -5.762  31.603  0.00  0.00    -0.016 A 
ATOM     46  C   UNL A   1     -26.110  -6.278  32.234  0.00  0.00    +0.162 A 
ATOM     47  H   UNL A   1     -28.295  -5.892  29.668  0.00  0.00    +0.066 HD
ATOM     48  H   UNL A   1     -24.072  -5.012  29.834  0.00  0.00    +0.062 HD
ATOM     49  H   UNL A   1     -24.033  -5.721  32.149  0.00  0.00    +0.066 HD
BRANCH  44  50
ATOM     50  O   UNL A   1     -28.388  -6.985  32.081  0.00  0.00    -0.491 OA
BRANCH  50  51
ATOM     51  C   UNL A   1     -29.495  -6.124  32.343  0.00  0.00    +0.079 C 
ATOM     52  H   UNL A   1     -29.116  -5.103  32.431  0.00  0.00    +0.066 HD
ATOM     53  H   UNL A   1     -30.208  -6.141  31.511  0.00  0.00    +0.066 HD
ATOM     54  H   UNL A   1     -29.994  -6.377  33.288  0.00  0.00    +0.066 HD
ENDBRANCH  50  51
ENDBRANCH  44  50
BRANCH  46  55
ATOM     55  O   UNL A   1     -25.870  -6.730  33.505  0.00  0.00    -0.491 OA
BRANCH  55  56
ATOM     56  C   UNL A   1     -26.430  -5.965  34.565  0.00  0.00    +0.079 C 
ATOM     57  H   UNL A   1     -27.243  -5.316  34.223  0.00  0.00    +0.066 HD
ATOM     58  H   UNL A   1     -26.750  -6.615  35.384  0.00  0.00    +0.066 HD
ATOM     59  H   UNL A   1     -25.636  -5.322  34.958  0.00  0.00    +0.066 HD
ENDBRANCH  55  56
ENDBRANCH  46  55
ENDBRANCH  40  41
BRANCH  40  60
ATOM     60  C   UNL A   1     -26.198  -3.514  27.645  0.00  0.00    -0.024 C 
ATOM     61  H   UNL A   1     -25.215  -3.338  27.189  0.00  0.00    +0.031 HD
BRANCH  60  62
ATOM     62  C   UNL A   1     -26.292  -2.544  28.833  0.00  0.00    -0.061 C 
ATOM     63  H   UNL A   1     -26.192  -1.495  28.531  0.00  0.00    +0.023 HD
ATOM     64  H   UNL A   1     -27.275  -2.632  29.308  0.00  0.00    +0.023 HD
ATOM     65  H   UNL A   1     -25.532  -2.751  29.589  0.00  0.00    +0.023 HD
ENDBRANCH  60  62
BRANCH  60  66
ATOM     66  C   UNL A   1     -27.220  -3.054  26.588  0.00  0.00    -0.061 C 
ATOM     67  H   UNL A   1     -27.842  -3.884  26.242  0.00  0.00    +0.023 HD
ATOM     68  H   UNL A   1     -27.885  -2.291  27.009  0.00  0.00    +0.023 HD
ATOM     69  H   UNL A   1     -26.738  -2.593  25.723  0.00  0.00    +0.023 HD
ENDBRANCH  60  66
ENDBRANCH  40  60
BRANCH  40  71
ATOM     70  N   UNL A   1     -28.597  -6.216  26.978  0.00  0.00    -0.196 NA
ATOM     71  C   UNL A   1     -27.553  -5.686  27.448  0.00  0.00    +0.074 C 
ENDBRANCH  40  71
ENDBRANCH  37  40
ENDBRANCH   1  37
TORSDOF 21
ENDMDL
