MODEL 1
REMARK VINA RESULT:    -5.665      0.000      0.000
REMARK INTER + INTRA:         -14.227
REMARK INTER:                 -10.271
REMARK INTRA:                  -3.956
REMARK UNBOUND:                -2.767
REMARK  Name = 2520
REMARK  21 active torsions:
REMARK  status: ('A' for Active; 'I' for Inactive)
REMARK    1  A    between atoms: O_1  and  C_19
REMARK    2  A    between atoms: O_1  and  C_28
REMARK    3  A    between atoms: O_2  and  C_23
REMARK    4  A    between atoms: O_2  and  C_31
REMARK    5  A    between atoms: O_3  and  C_27
REMARK    6  A    between atoms: O_3  and  C_32
REMARK    7  A    between atoms: O_4  and  C_30
REMARK    8  A    between atoms: O_4  and  C_33
REMARK    9  A    between atoms: N_5  and  C_12
REMARK   10  A    between atoms: N_5  and  C_18
REMARK   11  A    between atoms: N_5  and  C_20
REMARK   12  A    between atoms: C_7  and  C_8
REMARK   13  A    between atoms: C_7  and  C_9
REMARK   14  A    between atoms: C_7  and  C_11
REMARK   15  A    between atoms: C_7  and  C_15
REMARK   16  A    between atoms: C_8  and  C_13
REMARK   17  A    between atoms: C_8  and  C_14
REMARK   18  A    between atoms: C_9  and  C_10
REMARK   19  A    between atoms: C_10  and  C_12
REMARK   20  A    between atoms: C_18  and  C_22
REMARK   21  A    between atoms: C_22  and  C_24
REMARK                            x       y       z     vdW  Elec       q    Type
REMARK                         _______ _______ _______ _____ _____    ______ ____
ROOT
ATOM      1  C   UNL A   1     -25.160  -5.737  25.870  0.00  0.00    -0.038 C 
ATOM      2  H   UNL A   1     -26.045  -5.102  25.768  0.00  0.00    +0.028 HD
ATOM      3  H   UNL A   1     -25.353  -6.666  25.327  0.00  0.00    +0.028 HD
ENDROOT
BRANCH   1   4
ATOM      4  C   UNL A   1     -25.001  -6.087  27.372  0.00  0.00    -0.001 C 
ATOM      5  H   UNL A   1     -24.443  -7.025  27.494  0.00  0.00    +0.043 HD
ATOM      6  H   UNL A   1     -24.379  -5.298  27.816  0.00  0.00    +0.043 HD
BRANCH   4   7
ATOM      7  N   UNL A   1     -26.300  -6.153  28.105  0.00  0.00    -0.305 NA
BRANCH   7   8
ATOM      8  C   UNL A   1     -27.289  -6.887  27.307  0.00  0.00    -0.013 C 
ATOM      9  H   UNL A   1     -27.537  -6.375  26.370  0.00  0.00    +0.039 HD
ATOM     10  H   UNL A   1     -26.927  -7.892  27.064  0.00  0.00    +0.039 HD
ATOM     11  H   UNL A   1     -28.212  -7.048  27.875  0.00  0.00    +0.039 HD
ENDBRANCH   7   8
BRANCH   7  12
ATOM     12  C   UNL A   1     -26.789  -4.800  28.501  0.00  0.00    +0.003 C 
ATOM     13  H   UNL A   1     -27.354  -4.401  27.652  0.00  0.00    +0.043 HD
ATOM     14  H   UNL A   1     -27.484  -4.903  29.343  0.00  0.00    +0.043 HD
BRANCH  12  15
ATOM     15  C   UNL A   1     -25.726  -3.727  28.891  0.00  0.00    -0.015 C 
ATOM     16  H   UNL A   1     -25.969  -3.358  29.897  0.00  0.00    +0.033 HD
ATOM     17  H   UNL A   1     -24.735  -4.194  28.944  0.00  0.00    +0.033 HD
BRANCH  15  18
ATOM     18  C   UNL A   1     -25.627  -2.474  28.023  0.00  0.00    -0.043 A 
ATOM     19  C   UNL A   1     -26.228  -2.348  26.759  0.00  0.00    -0.013 A 
ATOM     20  C   UNL A   1     -24.950  -1.357  28.532  0.00  0.00    -0.055 A 
ATOM     21  C   UNL A   1     -26.264  -1.116  26.063  0.00  0.00    +0.162 A 
ATOM     22  C   UNL A   1     -24.943  -0.145  27.834  0.00  0.00    -0.016 A 
ATOM     23  C   UNL A   1     -25.619  -0.000  26.615  0.00  0.00    +0.162 A 
ATOM     24  H   UNL A   1     -26.679  -3.226  26.315  0.00  0.00    +0.066 HD
ATOM     25  H   UNL A   1     -24.434  -1.411  29.489  0.00  0.00    +0.062 HD
ATOM     26  H   UNL A   1     -24.417   0.710  28.257  0.00  0.00    +0.066 HD
BRANCH  23  27
ATOM     27  O   UNL A   1     -25.538   1.277  26.117  0.00  0.00    -0.491 OA
BRANCH  27  28
ATOM     28  C   UNL A   1     -25.283   2.351  27.014  0.00  0.00    +0.079 C 
ATOM     29  H   UNL A   1     -25.250   3.308  26.486  0.00  0.00    +0.066 HD
ATOM     30  H   UNL A   1     -25.994   2.360  27.848  0.00  0.00    +0.066 HD
ATOM     31  H   UNL A   1     -24.287   2.196  27.443  0.00  0.00    +0.066 HD
ENDBRANCH  27  28
ENDBRANCH  23  27
BRANCH  21  32
ATOM     32  O   UNL A   1     -26.906  -0.954  24.868  0.00  0.00    -0.491 OA
BRANCH  32  33
ATOM     33  C   UNL A   1     -28.324  -0.890  24.834  0.00  0.00    +0.079 C 
ATOM     34  H   UNL A   1     -28.701  -0.436  25.755  0.00  0.00    +0.066 HD
ATOM     35  H   UNL A   1     -28.705  -0.371  23.948  0.00  0.00    +0.066 HD
ATOM     36  H   UNL A   1     -28.697  -1.916  24.783  0.00  0.00    +0.066 HD
ENDBRANCH  32  33
ENDBRANCH  21  32
ENDBRANCH  15  18
ENDBRANCH  12  15
ENDBRANCH   7  12
ENDBRANCH   4   7
ENDBRANCH   1   4
BRANCH   1  37
ATOM     37  C   UNL A   1     -23.927  -5.010  25.234  0.00  0.00    -0.029 C 
ATOM     38  H   UNL A   1     -23.116  -5.747  25.144  0.00  0.00    +0.028 HD
ATOM     39  H   UNL A   1     -23.541  -4.271  25.946  0.00  0.00    +0.028 HD
BRANCH  37  40
ATOM     40  C   UNL A   1     -24.176  -4.301  23.796  0.00  0.00    +0.085 C 
BRANCH  40  41
ATOM     41  C   UNL A   1     -23.576  -2.878  23.986  0.00  0.00    -0.024 A 
ATOM     42  C   UNL A   1     -23.995  -1.834  23.133  0.00  0.00    -0.012 A 
ATOM     43  C   UNL A   1     -22.755  -2.512  25.064  0.00  0.00    -0.053 A 
ATOM     44  C   UNL A   1     -23.679  -0.484  23.364  0.00  0.00    +0.162 A 
ATOM     45  C   UNL A   1     -22.365  -1.183  25.258  0.00  0.00    -0.016 A 
ATOM     46  C   UNL A   1     -22.813  -0.163  24.414  0.00  0.00    +0.162 A 
ATOM     47  H   UNL A   1     -24.627  -2.077  22.280  0.00  0.00    +0.066 HD
ATOM     48  H   UNL A   1     -22.422  -3.233  25.806  0.00  0.00    +0.062 HD
ATOM     49  H   UNL A   1     -21.722  -0.934  26.101  0.00  0.00    +0.066 HD
BRANCH  44  50
ATOM     50  O   UNL A   1     -24.217   0.521  22.604  0.00  0.00    -0.491 OA
BRANCH  50  51
ATOM     51  C   UNL A   1     -25.296   0.126  21.760  0.00  0.00    +0.079 C 
ATOM     52  H   UNL A   1     -26.025   0.941  21.738  0.00  0.00    +0.066 HD
ATOM     53  H   UNL A   1     -24.949  -0.035  20.733  0.00  0.00    +0.066 HD
ATOM     54  H   UNL A   1     -25.808  -0.768  22.142  0.00  0.00    +0.066 HD
ENDBRANCH  50  51
ENDBRANCH  44  50
BRANCH  46  55
ATOM     55  O   UNL A   1     -22.403   1.085  24.801  0.00  0.00    -0.491 OA
BRANCH  55  56
ATOM     56  C   UNL A   1     -21.846   1.193  26.105  0.00  0.00    +0.079 C 
ATOM     57  H   UNL A   1     -20.772   0.975  26.117  0.00  0.00    +0.066 HD
ATOM     58  H   UNL A   1     -22.064   2.172  26.540  0.00  0.00    +0.066 HD
ATOM     59  H   UNL A   1     -22.341   0.446  26.735  0.00  0.00    +0.066 HD
ENDBRANCH  55  56
ENDBRANCH  46  55
ENDBRANCH  40  41
BRANCH  40  60
ATOM     60  C   UNL A   1     -23.487  -5.166  22.668  0.00  0.00    -0.024 C 
ATOM     61  H   UNL A   1     -23.095  -4.478  21.907  0.00  0.00    +0.031 HD
BRANCH  60  62
ATOM     62  C   UNL A   1     -24.418  -6.134  21.922  0.00  0.00    -0.061 C 
ATOM     63  H   UNL A   1     -24.237  -6.145  20.841  0.00  0.00    +0.023 HD
ATOM     64  H   UNL A   1     -24.245  -7.159  22.270  0.00  0.00    +0.023 HD
ATOM     65  H   UNL A   1     -25.471  -5.896  22.085  0.00  0.00    +0.023 HD
ENDBRANCH  60  62
BRANCH  60  66
ATOM     66  C   UNL A   1     -22.267  -5.972  23.149  0.00  0.00    -0.061 C 
ATOM     67  H   UNL A   1     -21.670  -5.407  23.870  0.00  0.00    +0.023 HD
ATOM     68  H   UNL A   1     -22.591  -6.899  23.636  0.00  0.00    +0.023 HD
ATOM     69  H   UNL A   1     -21.621  -6.274  22.321  0.00  0.00    +0.023 HD
ENDBRANCH  60  66
ENDBRANCH  40  60
BRANCH  40  71
ATOM     70  N   UNL A   1     -26.921  -4.084  23.405  0.00  0.00    -0.196 NA
ATOM     71  C   UNL A   1     -25.676  -4.182  23.583  0.00  0.00    +0.074 C 
ENDBRANCH  40  71
ENDBRANCH  37  40
ENDBRANCH   1  37
TORSDOF 21
ENDMDL
MODEL 2
REMARK VINA RESULT:    -5.288      3.188      4.837
REMARK INTER + INTRA:         -13.466
REMARK INTER:                 -11.655
REMARK INTRA:                  -1.810
REMARK UNBOUND:                -2.767
REMARK  Name = 2520
REMARK  21 active torsions:
REMARK  status: ('A' for Active; 'I' for Inactive)
REMARK    1  A    between atoms: O_1  and  C_19
REMARK    2  A    between atoms: O_1  and  C_28
REMARK    3  A    between atoms: O_2  and  C_23
REMARK    4  A    between atoms: O_2  and  C_31
REMARK    5  A    between atoms: O_3  and  C_27
REMARK    6  A    between atoms: O_3  and  C_32
REMARK    7  A    between atoms: O_4  and  C_30
REMARK    8  A    between atoms: O_4  and  C_33
REMARK    9  A    between atoms: N_5  and  C_12
REMARK   10  A    between atoms: N_5  and  C_18
REMARK   11  A    between atoms: N_5  and  C_20
REMARK   12  A    between atoms: C_7  and  C_8
REMARK   13  A    between atoms: C_7  and  C_9
REMARK   14  A    between atoms: C_7  and  C_11
REMARK   15  A    between atoms: C_7  and  C_15
REMARK   16  A    between atoms: C_8  and  C_13
REMARK   17  A    between atoms: C_8  and  C_14
REMARK   18  A    between atoms: C_9  and  C_10
REMARK   19  A    between atoms: C_10  and  C_12
REMARK   20  A    between atoms: C_18  and  C_22
REMARK   21  A    between atoms: C_22  and  C_24
REMARK                            x       y       z     vdW  Elec       q    Type
REMARK                         _______ _______ _______ _____ _____    ______ ____
ROOT
ATOM      1  C   UNL A   1     -26.482  -5.707  24.014  0.00  0.00    -0.038 C 
ATOM      2  H   UNL A   1     -26.706  -6.633  23.476  0.00  0.00    +0.028 HD
ATOM      3  H   UNL A   1     -25.543  -5.855  24.554  0.00  0.00    +0.028 HD
ENDROOT
BRANCH   1   4
ATOM      4  C   UNL A   1     -27.605  -5.485  25.060  0.00  0.00    -0.001 C 
ATOM      5  H   UNL A   1     -28.343  -4.762  24.688  0.00  0.00    +0.043 HD
ATOM      6  H   UNL A   1     -28.134  -6.441  25.162  0.00  0.00    +0.043 HD
BRANCH   4   7
ATOM      7  N   UNL A   1     -27.091  -5.065  26.398  0.00  0.00    -0.305 NA
BRANCH   7   8
ATOM      8  C   UNL A   1     -27.419  -3.656  26.641  0.00  0.00    -0.013 C 
ATOM      9  H   UNL A   1     -28.443  -3.519  27.007  0.00  0.00    +0.039 HD
ATOM     10  H   UNL A   1     -26.731  -3.216  27.373  0.00  0.00    +0.039 HD
ATOM     11  H   UNL A   1     -27.286  -3.059  25.733  0.00  0.00    +0.039 HD
ENDBRANCH   7   8
BRANCH   7  12
ATOM     12  C   UNL A   1     -25.633  -5.338  26.549  0.00  0.00    +0.003 C 
ATOM     13  H   UNL A   1     -25.266  -5.680  25.576  0.00  0.00    +0.043 HD
ATOM     14  H   UNL A   1     -25.116  -4.401  26.788  0.00  0.00    +0.043 HD
BRANCH  12  15
ATOM     15  C   UNL A   1     -25.196  -6.402  27.605  0.00  0.00    -0.015 C 
ATOM     16  H   UNL A   1     -25.642  -7.365  27.321  0.00  0.00    +0.033 HD
ATOM     17  H   UNL A   1     -24.107  -6.523  27.575  0.00  0.00    +0.033 HD
BRANCH  15  18
ATOM     18  C   UNL A   1     -25.622  -6.182  29.055  0.00  0.00    -0.043 A 
ATOM     19  C   UNL A   1     -26.918  -6.433  29.538  0.00  0.00    -0.013 A 
ATOM     20  C   UNL A   1     -24.657  -5.761  29.981  0.00  0.00    -0.055 A 
ATOM     21  C   UNL A   1     -27.229  -6.385  30.918  0.00  0.00    +0.162 A 
ATOM     22  C   UNL A   1     -24.964  -5.670  31.343  0.00  0.00    -0.016 A 
ATOM     23  C   UNL A   1     -26.233  -6.007  31.830  0.00  0.00    +0.162 A 
ATOM     24  H   UNL A   1     -27.695  -6.674  28.823  0.00  0.00    +0.066 HD
ATOM     25  H   UNL A   1     -23.648  -5.516  29.655  0.00  0.00    +0.062 HD
ATOM     26  H   UNL A   1     -24.192  -5.349  32.042  0.00  0.00    +0.066 HD
BRANCH  23  27
ATOM     27  O   UNL A   1     -26.318  -5.903  33.196  0.00  0.00    -0.491 OA
BRANCH  27  28
ATOM     28  C   UNL A   1     -26.131  -7.070  33.988  0.00  0.00    +0.079 C 
ATOM     29  H   UNL A   1     -26.513  -6.926  35.001  0.00  0.00    +0.066 HD
ATOM     30  H   UNL A   1     -26.554  -7.959  33.505  0.00  0.00    +0.066 HD
ATOM     31  H   UNL A   1     -25.053  -7.239  34.081  0.00  0.00    +0.066 HD
ENDBRANCH  27  28
ENDBRANCH  23  27
BRANCH  21  32
ATOM     32  O   UNL A   1     -28.463  -6.697  31.415  0.00  0.00    -0.491 OA
BRANCH  32  33
ATOM     33  C   UNL A   1     -29.580  -5.888  31.080  0.00  0.00    +0.079 C 
ATOM     34  H   UNL A   1     -29.433  -4.870  31.453  0.00  0.00    +0.066 HD
ATOM     35  H   UNL A   1     -29.803  -5.892  30.007  0.00  0.00    +0.066 HD
ATOM     36  H   UNL A   1     -30.454  -6.311  31.583  0.00  0.00    +0.066 HD
ENDBRANCH  32  33
ENDBRANCH  21  32
ENDBRANCH  15  18
ENDBRANCH  12  15
ENDBRANCH   7  12
ENDBRANCH   4   7
ENDBRANCH   1   4
BRANCH   1  37
ATOM     37  C   UNL A   1     -26.308  -4.540  22.984  0.00  0.00    -0.029 C 
ATOM     38  H   UNL A   1     -26.669  -3.617  23.461  0.00  0.00    +0.028 HD
ATOM     39  H   UNL A   1     -27.000  -4.696  22.146  0.00  0.00    +0.028 HD
BRANCH  37  40
ATOM     40  C   UNL A   1     -24.808  -4.304  22.413  0.00  0.00    +0.085 C 
BRANCH  40  41
ATOM     41  C   UNL A   1     -24.471  -2.856  22.871  0.00  0.00    -0.024 A 
ATOM     42  C   UNL A   1     -25.035  -2.362  24.067  0.00  0.00    -0.012 A 
ATOM     43  C   UNL A   1     -23.503  -2.046  22.255  0.00  0.00    -0.053 A 
ATOM     44  C   UNL A   1     -24.621  -1.162  24.669  0.00  0.00    +0.162 A 
ATOM     45  C   UNL A   1     -23.142  -0.810  22.800  0.00  0.00    -0.016 A 
ATOM     46  C   UNL A   1     -23.697  -0.354  23.999  0.00  0.00    +0.162 A 
ATOM     47  H   UNL A   1     -25.795  -2.957  24.572  0.00  0.00    +0.066 HD
ATOM     48  H   UNL A   1     -22.973  -2.360  21.360  0.00  0.00    +0.062 HD
ATOM     49  H   UNL A   1     -22.393  -0.203  22.294  0.00  0.00    +0.066 HD
BRANCH  44  50
ATOM     50  O   UNL A   1     -25.082  -0.778  25.901  0.00  0.00    -0.491 OA
BRANCH  50  51
ATOM     51  C   UNL A   1     -24.421  -1.389  27.008  0.00  0.00    +0.079 C 
ATOM     52  H   UNL A   1     -24.667  -0.819  27.907  0.00  0.00    +0.066 HD
ATOM     53  H   UNL A   1     -24.779  -2.413  27.158  0.00  0.00    +0.066 HD
ATOM     54  H   UNL A   1     -23.329  -1.372  26.891  0.00  0.00    +0.066 HD
ENDBRANCH  50  51
ENDBRANCH  44  50
BRANCH  46  55
ATOM     55  O   UNL A   1     -23.167   0.834  24.429  0.00  0.00    -0.491 OA
BRANCH  55  56
ATOM     56  C   UNL A   1     -21.936   0.760  25.136  0.00  0.00    +0.079 C 
ATOM     57  H   UNL A   1     -21.306  -0.066  24.788  0.00  0.00    +0.066 HD
ATOM     58  H   UNL A   1     -21.406   1.715  25.094  0.00  0.00    +0.066 HD
ATOM     59  H   UNL A   1     -22.174   0.572  26.188  0.00  0.00    +0.066 HD
ENDBRANCH  55  56
ENDBRANCH  46  55
ENDBRANCH  40  41
BRANCH  40  60
ATOM     60  C   UNL A   1     -23.854  -5.422  22.991  0.00  0.00    -0.024 C 
ATOM     61  H   UNL A   1     -24.482  -6.214  23.419  0.00  0.00    +0.031 HD
BRANCH  60  62
ATOM     62  C   UNL A   1     -22.919  -4.968  24.122  0.00  0.00    -0.061 C 
ATOM     63  H   UNL A   1     -22.911  -5.664  24.969  0.00  0.00    +0.023 HD
ATOM     64  H   UNL A   1     -21.887  -4.923  23.756  0.00  0.00    +0.023 HD
ATOM     65  H   UNL A   1     -23.186  -3.979  24.501  0.00  0.00    +0.023 HD
ENDBRANCH  60  62
BRANCH  60  66
ATOM     66  C   UNL A   1     -22.990  -6.124  21.927  0.00  0.00    -0.061 C 
ATOM     67  H   UNL A   1     -23.236  -7.187  21.846  0.00  0.00    +0.023 HD
ATOM     68  H   UNL A   1     -23.152  -5.667  20.944  0.00  0.00    +0.023 HD
ATOM     69  H   UNL A   1     -21.922  -6.028  22.135  0.00  0.00    +0.023 HD
ENDBRANCH  60  66
ENDBRANCH  40  60
BRANCH  40  71
ATOM     70  N   UNL A   1     -24.923  -4.375  19.635  0.00  0.00    -0.196 NA
ATOM     71  C   UNL A   1     -24.871  -4.343  20.895  0.00  0.00    +0.074 C 
ENDBRANCH  40  71
ENDBRANCH  37  40
ENDBRANCH   1  37
TORSDOF 21
ENDMDL
MODEL 3
REMARK VINA RESULT:    -4.939      2.718      5.190
REMARK INTER + INTRA:         -12.759
REMARK INTER:                 -10.426
REMARK INTRA:                  -2.333
REMARK UNBOUND:                -2.767
REMARK  Name = 2520
REMARK  21 active torsions:
REMARK  status: ('A' for Active; 'I' for Inactive)
REMARK    1  A    between atoms: O_1  and  C_19
REMARK    2  A    between atoms: O_1  and  C_28
REMARK    3  A    between atoms: O_2  and  C_23
REMARK    4  A    between atoms: O_2  and  C_31
REMARK    5  A    between atoms: O_3  and  C_27
REMARK    6  A    between atoms: O_3  and  C_32
REMARK    7  A    between atoms: O_4  and  C_30
REMARK    8  A    between atoms: O_4  and  C_33
REMARK    9  A    between atoms: N_5  and  C_12
REMARK   10  A    between atoms: N_5  and  C_18
REMARK   11  A    between atoms: N_5  and  C_20
REMARK   12  A    between atoms: C_7  and  C_8
REMARK   13  A    between atoms: C_7  and  C_9
REMARK   14  A    between atoms: C_7  and  C_11
REMARK   15  A    between atoms: C_7  and  C_15
REMARK   16  A    between atoms: C_8  and  C_13
REMARK   17  A    between atoms: C_8  and  C_14
REMARK   18  A    between atoms: C_9  and  C_10
REMARK   19  A    between atoms: C_10  and  C_12
REMARK   20  A    between atoms: C_18  and  C_22
REMARK   21  A    between atoms: C_22  and  C_24
REMARK                            x       y       z     vdW  Elec       q    Type
REMARK                         _______ _______ _______ _____ _____    ______ ____
ROOT
ATOM      1  C   UNL A   1     -23.462  -3.942  25.116  0.00  0.00    -0.038 C 
ATOM      2  H   UNL A   1     -22.959  -4.469  25.932  0.00  0.00    +0.028 HD
ATOM      3  H   UNL A   1     -24.525  -3.885  25.363  0.00  0.00    +0.028 HD
ENDROOT
BRANCH   1   4
ATOM      4  C   UNL A   1     -23.316  -4.804  23.835  0.00  0.00    -0.001 C 
ATOM      5  H   UNL A   1     -23.103  -4.170  22.964  0.00  0.00    +0.043 HD
ATOM      6  H   UNL A   1     -22.431  -5.437  23.980  0.00  0.00    +0.043 HD
BRANCH   4   7
ATOM      7  N   UNL A   1     -24.500  -5.675  23.570  0.00  0.00    -0.305 NA
BRANCH   7   8
ATOM      8  C   UNL A   1     -24.676  -5.855  22.125  0.00  0.00    -0.013 C 
ATOM      9  H   UNL A   1     -25.554  -5.326  21.738  0.00  0.00    +0.039 HD
ATOM     10  H   UNL A   1     -23.794  -5.504  21.577  0.00  0.00    +0.039 HD
ATOM     11  H   UNL A   1     -24.764  -6.917  21.869  0.00  0.00    +0.039 HD
ENDBRANCH   7   8
BRANCH   7  12
ATOM     12  C   UNL A   1     -25.735  -5.155  24.226  0.00  0.00    +0.003 C 
ATOM     13  H   UNL A   1     -25.457  -4.241  24.759  0.00  0.00    +0.043 HD
ATOM     14  H   UNL A   1     -26.462  -4.880  23.453  0.00  0.00    +0.043 HD
BRANCH  12  15
ATOM     15  C   UNL A   1     -26.461  -6.083  25.250  0.00  0.00    -0.015 C 
ATOM     16  H   UNL A   1     -27.543  -5.925  25.144  0.00  0.00    +0.033 HD
ATOM     17  H   UNL A   1     -26.256  -7.132  25.005  0.00  0.00    +0.033 HD
BRANCH  15  18
ATOM     18  C   UNL A   1     -26.173  -5.865  26.735  0.00  0.00    -0.043 A 
ATOM     19  C   UNL A   1     -27.003  -5.124  27.593  0.00  0.00    -0.013 A 
ATOM     20  C   UNL A   1     -25.050  -6.487  27.298  0.00  0.00    -0.055 A 
ATOM     21  C   UNL A   1     -26.799  -5.091  28.993  0.00  0.00    +0.162 A 
ATOM     22  C   UNL A   1     -24.814  -6.427  28.675  0.00  0.00    -0.016 A 
ATOM     23  C   UNL A   1     -25.693  -5.760  29.538  0.00  0.00    +0.162 A 
ATOM     24  H   UNL A   1     -27.825  -4.567  27.159  0.00  0.00    +0.066 HD
ATOM     25  H   UNL A   1     -24.352  -7.041  26.673  0.00  0.00    +0.062 HD
ATOM     26  H   UNL A   1     -23.939  -6.927  29.088  0.00  0.00    +0.066 HD
BRANCH  23  27
ATOM     27  O   UNL A   1     -25.317  -5.861  30.855  0.00  0.00    -0.491 OA
BRANCH  27  28
ATOM     28  C   UNL A   1     -23.933  -5.807  31.181  0.00  0.00    +0.079 C 
ATOM     29  H   UNL A   1     -23.358  -6.517  30.582  0.00  0.00    +0.066 HD
ATOM     30  H   UNL A   1     -23.539  -4.787  31.109  0.00  0.00    +0.066 HD
ATOM     31  H   UNL A   1     -23.826  -6.120  32.225  0.00  0.00    +0.066 HD
ENDBRANCH  27  28
ENDBRANCH  23  27
BRANCH  21  32
ATOM     32  O   UNL A   1     -27.635  -4.437  29.853  0.00  0.00    -0.491 OA
BRANCH  32  33
ATOM     33  C   UNL A   1     -27.424  -3.060  30.129  0.00  0.00    +0.079 C 
ATOM     34  H   UNL A   1     -27.355  -2.900  31.209  0.00  0.00    +0.066 HD
ATOM     35  H   UNL A   1     -26.551  -2.651  29.608  0.00  0.00    +0.066 HD
ATOM     36  H   UNL A   1     -28.295  -2.514  29.759  0.00  0.00    +0.066 HD
ENDBRANCH  32  33
ENDBRANCH  21  32
ENDBRANCH  15  18
ENDBRANCH  12  15
ENDBRANCH   7  12
ENDBRANCH   4   7
ENDBRANCH   1   4
BRANCH   1  37
ATOM     37  C   UNL A   1     -22.878  -2.494  24.999  0.00  0.00    -0.029 C 
ATOM     38  H   UNL A   1     -22.756  -2.268  23.930  0.00  0.00    +0.028 HD
ATOM     39  H   UNL A   1     -21.854  -2.488  25.393  0.00  0.00    +0.028 HD
BRANCH  37  40
ATOM     40  C   UNL A   1     -23.738  -1.314  25.706  0.00  0.00    +0.085 C 
BRANCH  40  41
ATOM     41  C   UNL A   1     -24.370  -0.556  24.503  0.00  0.00    -0.024 A 
ATOM     42  C   UNL A   1     -24.264  -1.108  23.208  0.00  0.00    -0.012 A 
ATOM     43  C   UNL A   1     -25.191   0.575  24.635  0.00  0.00    -0.053 A 
ATOM     44  C   UNL A   1     -24.982  -0.616  22.106  0.00  0.00    +0.162 A 
ATOM     45  C   UNL A   1     -25.846   1.126  23.529  0.00  0.00    -0.016 A 
ATOM     46  C   UNL A   1     -25.746   0.546  22.261  0.00  0.00    +0.162 A 
ATOM     47  H   UNL A   1     -23.630  -1.982  23.062  0.00  0.00    +0.066 HD
ATOM     48  H   UNL A   1     -25.379   1.042  25.598  0.00  0.00    +0.062 HD
ATOM     49  H   UNL A   1     -26.471   2.007  23.664  0.00  0.00    +0.066 HD
BRANCH  44  50
ATOM     50  O   UNL A   1     -24.972  -1.257  20.895  0.00  0.00    -0.491 OA
BRANCH  50  51
ATOM     51  C   UNL A   1     -24.121  -2.400  20.826  0.00  0.00    +0.079 C 
ATOM     52  H   UNL A   1     -23.091  -2.050  20.721  0.00  0.00    +0.066 HD
ATOM     53  H   UNL A   1     -24.179  -2.984  21.751  0.00  0.00    +0.066 HD
ATOM     54  H   UNL A   1     -24.350  -3.027  19.955  0.00  0.00    +0.066 HD
ENDBRANCH  50  51
ENDBRANCH  44  50
BRANCH  46  55
ATOM     55  O   UNL A   1     -26.519   1.165  21.315  0.00  0.00    -0.491 OA
BRANCH  55  56
ATOM     56  C   UNL A   1     -25.953   2.304  20.680  0.00  0.00    +0.079 C 
ATOM     57  H   UNL A   1     -25.930   3.178  21.340  0.00  0.00    +0.066 HD
ATOM     58  H   UNL A   1     -24.961   2.072  20.283  0.00  0.00    +0.066 HD
ATOM     59  H   UNL A   1     -26.590   2.551  19.825  0.00  0.00    +0.066 HD
ENDBRANCH  55  56
ENDBRANCH  46  55
ENDBRANCH  40  41
BRANCH  40  60
ATOM     60  C   UNL A   1     -24.778  -1.960  26.704  0.00  0.00    -0.024 C 
ATOM     61  H   UNL A   1     -24.497  -3.011  26.851  0.00  0.00    +0.031 HD
BRANCH  60  62
ATOM     62  C   UNL A   1     -26.234  -1.977  26.216  0.00  0.00    -0.061 C 
ATOM     63  H   UNL A   1     -26.826  -1.149  26.622  0.00  0.00    +0.023 HD
ATOM     64  H   UNL A   1     -26.263  -1.866  25.126  0.00  0.00    +0.023 HD
ATOM     65  H   UNL A   1     -26.740  -2.910  26.473  0.00  0.00    +0.023 HD
ENDBRANCH  60  62
BRANCH  60  66
ATOM     66  C   UNL A   1     -24.768  -1.340  28.113  0.00  0.00    -0.061 C 
ATOM     67  H   UNL A   1     -23.827  -0.823  28.319  0.00  0.00    +0.023 HD
ATOM     68  H   UNL A   1     -25.580  -0.609  28.213  0.00  0.00    +0.023 HD
ATOM     69  H   UNL A   1     -24.934  -2.087  28.893  0.00  0.00    +0.023 HD
ENDBRANCH  60  66
ENDBRANCH  40  60
BRANCH  40  71
ATOM     70  N   UNL A   1     -21.962   0.380  27.016  0.00  0.00    -0.196 NA
ATOM     71  C   UNL A   1     -22.768  -0.388  26.422  0.00  0.00    +0.074 C 
ENDBRANCH  40  71
ENDBRANCH  37  40
ENDBRANCH   1  37
TORSDOF 21
ENDMDL
MODEL 4
REMARK VINA RESULT:    -4.919     35.947     39.876
REMARK INTER + INTRA:         -12.718
REMARK INTER:                 -11.341
REMARK INTRA:                  -1.377
REMARK UNBOUND:                -2.767
REMARK  Name = 2520
REMARK  21 active torsions:
REMARK  status: ('A' for Active; 'I' for Inactive)
REMARK    1  A    between atoms: O_1  and  C_19
REMARK    2  A    between atoms: O_1  and  C_28
REMARK    3  A    between atoms: O_2  and  C_23
REMARK    4  A    between atoms: O_2  and  C_31
REMARK    5  A    between atoms: O_3  and  C_27
REMARK    6  A    between atoms: O_3  and  C_32
REMARK    7  A    between atoms: O_4  and  C_30
REMARK    8  A    between atoms: O_4  and  C_33
REMARK    9  A    between atoms: N_5  and  C_12
REMARK   10  A    between atoms: N_5  and  C_18
REMARK   11  A    between atoms: N_5  and  C_20
REMARK   12  A    between atoms: C_7  and  C_8
REMARK   13  A    between atoms: C_7  and  C_9
REMARK   14  A    between atoms: C_7  and  C_11
REMARK   15  A    between atoms: C_7  and  C_15
REMARK   16  A    between atoms: C_8  and  C_13
REMARK   17  A    between atoms: C_8  and  C_14
REMARK   18  A    between atoms: C_9  and  C_10
REMARK   19  A    between atoms: C_10  and  C_12
REMARK   20  A    between atoms: C_18  and  C_22
REMARK   21  A    between atoms: C_22  and  C_24
REMARK                            x       y       z     vdW  Elec       q    Type
REMARK                         _______ _______ _______ _____ _____    ______ ____
ROOT
ATOM      1  C   UNL A   1     -16.766   7.597 -11.246  0.00  0.00    -0.038 C 
ATOM      2  H   UNL A   1     -15.819   8.143 -11.288  0.00  0.00    +0.028 HD
ATOM      3  H   UNL A   1     -16.645   6.775 -10.535  0.00  0.00    +0.028 HD
ENDROOT
BRANCH   1   4
ATOM      4  C   UNL A   1     -17.018   6.981 -12.647  0.00  0.00    -0.001 C 
ATOM      5  H   UNL A   1     -17.252   5.911 -12.563  0.00  0.00    +0.043 HD
ATOM      6  H   UNL A   1     -17.920   7.463 -13.046  0.00  0.00    +0.043 HD
BRANCH   4   7
ATOM      7  N   UNL A   1     -15.887   7.195 -13.599  0.00  0.00    -0.305 NA
BRANCH   7   8
ATOM      8  C   UNL A   1     -15.435   5.908 -14.139  0.00  0.00    -0.013 C 
ATOM      9  H   UNL A   1     -14.358   5.892 -14.342  0.00  0.00    +0.039 HD
ATOM     10  H   UNL A   1     -15.667   5.091 -13.446  0.00  0.00    +0.039 HD
ATOM     11  H   UNL A   1     -15.971   5.658 -15.061  0.00  0.00    +0.039 HD
ENDBRANCH   7   8
BRANCH   7  12
ATOM     12  C   UNL A   1     -14.772   7.968 -12.979  0.00  0.00    +0.003 C 
ATOM     13  H   UNL A   1     -14.718   8.930 -13.500  0.00  0.00    +0.043 HD
ATOM     14  H   UNL A   1     -15.018   8.172 -11.931  0.00  0.00    +0.043 HD
BRANCH  12  15
ATOM     15  C   UNL A   1     -13.343   7.343 -13.019  0.00  0.00    -0.015 C 
ATOM     16  H   UNL A   1     -13.106   6.974 -12.012  0.00  0.00    +0.033 HD
ATOM     17  H   UNL A   1     -13.338   6.479 -13.695  0.00  0.00    +0.033 HD
BRANCH  15  18
ATOM     18  C   UNL A   1     -12.176   8.257 -13.390  0.00  0.00    -0.043 A 
ATOM     19  C   UNL A   1     -12.318   9.619 -13.705  0.00  0.00    -0.013 A 
ATOM     20  C   UNL A   1     -10.877   7.732 -13.360  0.00  0.00    -0.055 A 
ATOM     21  C   UNL A   1     -11.202  10.473 -13.871  0.00  0.00    +0.162 A 
ATOM     22  C   UNL A   1      -9.766   8.557 -13.564  0.00  0.00    -0.016 A 
ATOM     23  C   UNL A   1      -9.911   9.932 -13.790  0.00  0.00    +0.162 A 
ATOM     24  H   UNL A   1     -13.319  10.019 -13.817  0.00  0.00    +0.066 HD
ATOM     25  H   UNL A   1     -10.712   6.675 -13.160  0.00  0.00    +0.062 HD
ATOM     26  H   UNL A   1      -8.767   8.125 -13.526  0.00  0.00    +0.066 HD
BRANCH  23  27
ATOM     27  O   UNL A   1      -8.703  10.575 -13.912  0.00  0.00    -0.491 OA
BRANCH  27  28
ATOM     28  C   UNL A   1      -8.174  10.806 -15.212  0.00  0.00    +0.079 C 
ATOM     29  H   UNL A   1      -7.249  11.386 -15.166  0.00  0.00    +0.066 HD
ATOM     30  H   UNL A   1      -8.052   9.871 -15.772  0.00  0.00    +0.066 HD
ATOM     31  H   UNL A   1      -8.899  11.416 -15.762  0.00  0.00    +0.066 HD
ENDBRANCH  27  28
ENDBRANCH  23  27
BRANCH  21  32
ATOM     32  O   UNL A   1     -11.318  11.814 -14.105  0.00  0.00    -0.491 OA
BRANCH  32  33
ATOM     33  C   UNL A   1     -11.449  12.710 -13.012  0.00  0.00    +0.079 C 
ATOM     34  H   UNL A   1     -11.151  12.215 -12.082  0.00  0.00    +0.066 HD
ATOM     35  H   UNL A   1     -10.900  13.646 -13.160  0.00  0.00    +0.066 HD
ATOM     36  H   UNL A   1     -12.507  12.976 -12.931  0.00  0.00    +0.066 HD
ENDBRANCH  32  33
ENDBRANCH  21  32
ENDBRANCH  15  18
ENDBRANCH  12  15
ENDBRANCH   7  12
ENDBRANCH   4   7
ENDBRANCH   1   4
BRANCH   1  37
ATOM     37  C   UNL A   1     -17.895   8.558 -10.742  0.00  0.00    -0.029 C 
ATOM     38  H   UNL A   1     -18.693   8.560 -11.498  0.00  0.00    +0.028 HD
ATOM     39  H   UNL A   1     -17.517   9.587 -10.748  0.00  0.00    +0.028 HD
BRANCH  37  40
ATOM     40  C   UNL A   1     -18.528   8.220  -9.288  0.00  0.00    +0.085 C 
BRANCH  40  41
ATOM     41  C   UNL A   1     -18.808   9.625  -8.680  0.00  0.00    -0.024 A 
ATOM     42  C   UNL A   1     -19.469  10.596  -9.463  0.00  0.00    -0.012 A 
ATOM     43  C   UNL A   1     -18.591   9.951  -7.332  0.00  0.00    -0.053 A 
ATOM     44  C   UNL A   1     -19.956  11.803  -8.935  0.00  0.00    +0.162 A 
ATOM     45  C   UNL A   1     -18.996  11.185  -6.813  0.00  0.00    -0.016 A 
ATOM     46  C   UNL A   1     -19.672  12.120  -7.602  0.00  0.00    +0.162 A 
ATOM     47  H   UNL A   1     -19.650  10.383 -10.516  0.00  0.00    +0.066 HD
ATOM     48  H   UNL A   1     -18.137   9.253  -6.635  0.00  0.00    +0.062 HD
ATOM     49  H   UNL A   1     -18.807  11.411  -5.764  0.00  0.00    +0.066 HD
BRANCH  44  50
ATOM     50  O   UNL A   1     -20.718  12.661  -9.683  0.00  0.00    -0.491 OA
BRANCH  50  51
ATOM     51  C   UNL A   1     -20.375  12.722 -11.066  0.00  0.00    +0.079 C 
ATOM     52  H   UNL A   1     -20.259  13.773 -11.340  0.00  0.00    +0.066 HD
ATOM     53  H   UNL A   1     -19.417  12.224 -11.251  0.00  0.00    +0.066 HD
ATOM     54  H   UNL A   1     -21.163  12.296 -11.701  0.00  0.00    +0.066 HD
ENDBRANCH  50  51
ENDBRANCH  44  50
BRANCH  46  55
ATOM     55  O   UNL A   1     -20.069  13.234  -6.910  0.00  0.00    -0.491 OA
BRANCH  55  56
ATOM     56  C   UNL A   1     -21.321  13.151  -6.241  0.00  0.00    +0.079 C 
ATOM     57  H   UNL A   1     -21.376  12.286  -5.571  0.00  0.00    +0.066 HD
ATOM     58  H   UNL A   1     -21.541  14.084  -5.715  0.00  0.00    +0.066 HD
ATOM     59  H   UNL A   1     -22.093  13.025  -7.007  0.00  0.00    +0.066 HD
ENDBRANCH  55  56
ENDBRANCH  46  55
ENDBRANCH  40  41
BRANCH  40  60
ATOM     60  C   UNL A   1     -19.808   7.313  -9.479  0.00  0.00    -0.024 C 
ATOM     61  H   UNL A   1     -19.484   6.264  -9.458  0.00  0.00    +0.031 HD
BRANCH  60  62
ATOM     62  C   UNL A   1     -20.552   7.499 -10.810  0.00  0.00    -0.061 C 
ATOM     63  H   UNL A   1     -20.097   6.933 -11.631  0.00  0.00    +0.023 HD
ATOM     64  H   UNL A   1     -21.579   7.129 -10.716  0.00  0.00    +0.023 HD
ATOM     65  H   UNL A   1     -20.598   8.548 -11.109  0.00  0.00    +0.023 HD
ENDBRANCH  60  62
BRANCH  60  66
ATOM     66  C   UNL A   1     -20.843   7.438  -8.346  0.00  0.00    -0.061 C 
ATOM     67  H   UNL A   1     -21.761   7.922  -8.691  0.00  0.00    +0.023 HD
ATOM     68  H   UNL A   1     -21.111   6.445  -7.965  0.00  0.00    +0.023 HD
ATOM     69  H   UNL A   1     -20.453   7.996  -7.491  0.00  0.00    +0.023 HD
ENDBRANCH  60  66
ENDBRANCH  40  60
BRANCH  40  71
ATOM     70  N   UNL A   1     -16.574   6.947  -7.772  0.00  0.00    -0.196 NA
ATOM     71  C   UNL A   1     -17.461   7.525  -8.459  0.00  0.00    +0.074 C 
ENDBRANCH  40  71
ENDBRANCH  37  40
ENDBRANCH   1  37
TORSDOF 21
ENDMDL
MODEL 5
REMARK VINA RESULT:    -4.862      4.016      5.849
REMARK INTER + INTRA:         -12.603
REMARK INTER:                 -10.969
REMARK INTRA:                  -1.634
REMARK UNBOUND:                -2.767
REMARK  Name = 2520
REMARK  21 active torsions:
REMARK  status: ('A' for Active; 'I' for Inactive)
REMARK    1  A    between atoms: O_1  and  C_19
REMARK    2  A    between atoms: O_1  and  C_28
REMARK    3  A    between atoms: O_2  and  C_23
REMARK    4  A    between atoms: O_2  and  C_31
REMARK    5  A    between atoms: O_3  and  C_27
REMARK    6  A    between atoms: O_3  and  C_32
REMARK    7  A    between atoms: O_4  and  C_30
REMARK    8  A    between atoms: O_4  and  C_33
REMARK    9  A    between atoms: N_5  and  C_12
REMARK   10  A    between atoms: N_5  and  C_18
REMARK   11  A    between atoms: N_5  and  C_20
REMARK   12  A    between atoms: C_7  and  C_8
REMARK   13  A    between atoms: C_7  and  C_9
REMARK   14  A    between atoms: C_7  and  C_11
REMARK   15  A    between atoms: C_7  and  C_15
REMARK   16  A    between atoms: C_8  and  C_13
REMARK   17  A    between atoms: C_8  and  C_14
REMARK   18  A    between atoms: C_9  and  C_10
REMARK   19  A    between atoms: C_10  and  C_12
REMARK   20  A    between atoms: C_18  and  C_22
REMARK   21  A    between atoms: C_22  and  C_24
REMARK                            x       y       z     vdW  Elec       q    Type
REMARK                         _______ _______ _______ _____ _____    ______ ____
ROOT
ATOM      1  C   UNL A   1     -25.236  -5.645  26.166  0.00  0.00    -0.038 C 
ATOM      2  H   UNL A   1     -26.140  -5.460  25.578  0.00  0.00    +0.028 HD
ATOM      3  H   UNL A   1     -25.095  -6.728  26.224  0.00  0.00    +0.028 HD
ENDROOT
BRANCH   1   4
ATOM      4  C   UNL A   1     -25.490  -5.119  27.602  0.00  0.00    -0.001 C 
ATOM      5  H   UNL A   1     -25.303  -5.908  28.342  0.00  0.00    +0.043 HD
ATOM      6  H   UNL A   1     -24.742  -4.338  27.788  0.00  0.00    +0.043 HD
BRANCH   4   7
ATOM      7  N   UNL A   1     -26.855  -4.542  27.788  0.00  0.00    -0.305 NA
BRANCH   7   8
ATOM      8  C   UNL A   1     -26.850  -3.119  27.433  0.00  0.00    -0.013 C 
ATOM      9  H   UNL A   1     -26.773  -2.954  26.352  0.00  0.00    +0.039 HD
ATOM     10  H   UNL A   1     -27.761  -2.623  27.791  0.00  0.00    +0.039 HD
ATOM     11  H   UNL A   1     -26.027  -2.592  27.929  0.00  0.00    +0.039 HD
ENDBRANCH   7   8
BRANCH   7  12
ATOM     12  C   UNL A   1     -27.380  -4.777  29.164  0.00  0.00    +0.003 C 
ATOM     13  H   UNL A   1     -27.681  -3.804  29.565  0.00  0.00    +0.043 HD
ATOM     14  H   UNL A   1     -28.278  -5.403  29.103  0.00  0.00    +0.043 HD
BRANCH  12  15
ATOM     15  C   UNL A   1     -26.419  -5.427  30.208  0.00  0.00    -0.015 C 
ATOM     16  H   UNL A   1     -25.741  -6.105  29.671  0.00  0.00    +0.033 HD
ATOM     17  H   UNL A   1     -25.804  -4.649  30.675  0.00  0.00    +0.033 HD
BRANCH  15  18
ATOM     18  C   UNL A   1     -27.041  -6.283  31.311  0.00  0.00    -0.043 A 
ATOM     19  C   UNL A   1     -28.177  -7.089  31.129  0.00  0.00    -0.013 A 
ATOM     20  C   UNL A   1     -26.414  -6.321  32.564  0.00  0.00    -0.055 A 
ATOM     21  C   UNL A   1     -28.619  -7.999  32.119  0.00  0.00    +0.162 A 
ATOM     22  C   UNL A   1     -26.866  -7.187  33.565  0.00  0.00    -0.016 A 
ATOM     23  C   UNL A   1     -27.947  -8.052  33.348  0.00  0.00    +0.162 A 
ATOM     24  H   UNL A   1     -28.723  -7.006  30.197  0.00  0.00    +0.066 HD
ATOM     25  H   UNL A   1     -25.552  -5.688  32.771  0.00  0.00    +0.062 HD
ATOM     26  H   UNL A   1     -26.355  -7.202  34.526  0.00  0.00    +0.066 HD
BRANCH  23  27
ATOM     27  O   UNL A   1     -28.201  -8.857  34.431  0.00  0.00    -0.491 OA
BRANCH  27  28
ATOM     28  C   UNL A   1     -27.249  -8.913  35.486  0.00  0.00    +0.079 C 
ATOM     29  H   UNL A   1     -26.400  -9.547  35.219  0.00  0.00    +0.066 HD
ATOM     30  H   UNL A   1     -26.937  -7.912  35.804  0.00  0.00    +0.066 HD
ATOM     31  H   UNL A   1     -27.734  -9.386  36.346  0.00  0.00    +0.066 HD
ENDBRANCH  27  28
ENDBRANCH  23  27
BRANCH  21  32
ATOM     32  O   UNL A   1     -29.678  -8.844  31.935  0.00  0.00    -0.491 OA
BRANCH  32  33
ATOM     33  C   UNL A   1     -29.880  -9.452  30.669  0.00  0.00    +0.079 C 
ATOM     34  H   UNL A   1     -29.757  -8.713  29.872  0.00  0.00    +0.066 HD
ATOM     35  H   UNL A   1     -29.236 -10.324  30.508  0.00  0.00    +0.066 HD
ATOM     36  H   UNL A   1     -30.911  -9.815  30.640  0.00  0.00    +0.066 HD
ENDBRANCH  32  33
ENDBRANCH  21  32
ENDBRANCH  15  18
ENDBRANCH  12  15
ENDBRANCH   7  12
ENDBRANCH   4   7
ENDBRANCH   1   4
BRANCH   1  37
ATOM     37  C   UNL A   1     -24.007  -5.000  25.441  0.00  0.00    -0.029 C 
ATOM     38  H   UNL A   1     -23.274  -5.798  25.254  0.00  0.00    +0.028 HD
ATOM     39  H   UNL A   1     -23.497  -4.323  26.136  0.00  0.00    +0.028 HD
BRANCH  37  40
ATOM     40  C   UNL A   1     -24.321  -4.219  24.054  0.00  0.00    +0.085 C 
BRANCH  40  41
ATOM     41  C   UNL A   1     -23.756  -2.791  24.307  0.00  0.00    -0.024 A 
ATOM     42  C   UNL A   1     -23.817  -2.247  25.609  0.00  0.00    -0.012 A 
ATOM     43  C   UNL A   1     -23.032  -2.057  23.355  0.00  0.00    -0.053 A 
ATOM     44  C   UNL A   1     -23.144  -1.070  25.977  0.00  0.00    +0.162 A 
ATOM     45  C   UNL A   1     -22.427  -0.841  23.688  0.00  0.00    -0.016 A 
ATOM     46  C   UNL A   1     -22.480  -0.334  24.990  0.00  0.00    +0.162 A 
ATOM     47  H   UNL A   1     -24.375  -2.783  26.374  0.00  0.00    +0.066 HD
ATOM     48  H   UNL A   1     -22.883  -2.415  22.341  0.00  0.00    +0.062 HD
ATOM     49  H   UNL A   1     -21.878  -0.292  22.925  0.00  0.00    +0.066 HD
BRANCH  44  50
ATOM     50  O   UNL A   1     -23.102  -0.642  27.278  0.00  0.00    -0.491 OA
BRANCH  50  51
ATOM     51  C   UNL A   1     -24.307  -0.048  27.755  0.00  0.00    +0.079 C 
ATOM     52  H   UNL A   1     -24.595  -0.559  28.677  0.00  0.00    +0.066 HD
ATOM     53  H   UNL A   1     -24.152   1.008  27.998  0.00  0.00    +0.066 HD
ATOM     54  H   UNL A   1     -25.132  -0.165  27.039  0.00  0.00    +0.066 HD
ENDBRANCH  50  51
ENDBRANCH  44  50
BRANCH  46  55
ATOM     55  O   UNL A   1     -21.761   0.820  25.156  0.00  0.00    -0.491 OA
BRANCH  55  56
ATOM     56  C   UNL A   1     -20.346   0.685  25.198  0.00  0.00    +0.079 C 
ATOM     57  H   UNL A   1     -19.995  -0.178  24.623  0.00  0.00    +0.066 HD
ATOM     58  H   UNL A   1     -19.860   1.610  24.876  0.00  0.00    +0.066 HD
ATOM     59  H   UNL A   1     -20.064   0.523  26.243  0.00  0.00    +0.066 HD
ENDBRANCH  55  56
ENDBRANCH  46  55
ENDBRANCH  40  41
BRANCH  40  60
ATOM     60  C   UNL A   1     -23.645  -4.998  22.858  0.00  0.00    -0.024 C 
ATOM     61  H   UNL A   1     -23.311  -4.258  22.119  0.00  0.00    +0.031 HD
BRANCH  60  62
ATOM     62  C   UNL A   1     -24.565  -5.967  22.100  0.00  0.00    -0.061 C 
ATOM     63  H   UNL A   1     -25.624  -5.701  22.190  0.00  0.00    +0.023 HD
ATOM     64  H   UNL A   1     -24.333  -5.940  21.029  0.00  0.00    +0.023 HD
ATOM     65  H   UNL A   1     -24.446  -6.996  22.444  0.00  0.00    +0.023 HD
ENDBRANCH  60  62
BRANCH  60  66
ATOM     66  C   UNL A   1     -22.374  -5.775  23.251  0.00  0.00    -0.061 C 
ATOM     67  H   UNL A   1     -22.272  -6.698  22.673  0.00  0.00    +0.023 HD
ATOM     68  H   UNL A   1     -21.482  -5.164  23.066  0.00  0.00    +0.023 HD
ATOM     69  H   UNL A   1     -22.357  -6.024  24.314  0.00  0.00    +0.023 HD
ENDBRANCH  60  66
ENDBRANCH  40  60
BRANCH  40  71
ATOM     70  N   UNL A   1     -27.083  -4.063  23.758  0.00  0.00    -0.196 NA
ATOM     71  C   UNL A   1     -25.830  -4.134  23.893  0.00  0.00    +0.074 C 
ENDBRANCH  40  71
ENDBRANCH  37  40
ENDBRANCH   1  37
TORSDOF 21
ENDMDL
MODEL 6
REMARK VINA RESULT:    -4.819     40.756     43.212
REMARK INTER + INTRA:         -12.516
REMARK INTER:                  -9.958
REMARK INTRA:                  -2.558
REMARK UNBOUND:                -2.767
REMARK  Name = 2520
REMARK  21 active torsions:
REMARK  status: ('A' for Active; 'I' for Inactive)
REMARK    1  A    between atoms: O_1  and  C_19
REMARK    2  A    between atoms: O_1  and  C_28
REMARK    3  A    between atoms: O_2  and  C_23
REMARK    4  A    between atoms: O_2  and  C_31
REMARK    5  A    between atoms: O_3  and  C_27
REMARK    6  A    between atoms: O_3  and  C_32
REMARK    7  A    between atoms: O_4  and  C_30
REMARK    8  A    between atoms: O_4  and  C_33
REMARK    9  A    between atoms: N_5  and  C_12
REMARK   10  A    between atoms: N_5  and  C_18
REMARK   11  A    between atoms: N_5  and  C_20
REMARK   12  A    between atoms: C_7  and  C_8
REMARK   13  A    between atoms: C_7  and  C_9
REMARK   14  A    between atoms: C_7  and  C_11
REMARK   15  A    between atoms: C_7  and  C_15
REMARK   16  A    between atoms: C_8  and  C_13
REMARK   17  A    between atoms: C_8  and  C_14
REMARK   18  A    between atoms: C_9  and  C_10
REMARK   19  A    between atoms: C_10  and  C_12
REMARK   20  A    between atoms: C_18  and  C_22
REMARK   21  A    between atoms: C_22  and  C_24
REMARK                            x       y       z     vdW  Elec       q    Type
REMARK                         _______ _______ _______ _____ _____    ______ ____
ROOT
ATOM      1  C   UNL A   1      11.297   0.221   4.662  0.00  0.00    -0.038 C 
ATOM      2  H   UNL A   1      10.480   0.865   4.321  0.00  0.00    +0.028 HD
ATOM      3  H   UNL A   1      11.367  -0.621   3.968  0.00  0.00    +0.028 HD
ENDROOT
BRANCH   1   4
ATOM      4  C   UNL A   1      10.908  -0.339   6.054  0.00  0.00    -0.001 C 
ATOM      5  H   UNL A   1       9.937  -0.849   6.009  0.00  0.00    +0.043 HD
ATOM      6  H   UNL A   1      11.650  -1.109   6.303  0.00  0.00    +0.043 HD
BRANCH   4   7
ATOM      7  N   UNL A   1      10.903   0.699   7.129  0.00  0.00    -0.305 NA
BRANCH   7   8
ATOM      8  C   UNL A   1      11.600   0.193   8.317  0.00  0.00    -0.013 C 
ATOM      9  H   UNL A   1      11.886   0.994   9.009  0.00  0.00    +0.039 HD
ATOM     10  H   UNL A   1      10.975  -0.524   8.861  0.00  0.00    +0.039 HD
ATOM     11  H   UNL A   1      12.498  -0.368   8.037  0.00  0.00    +0.039 HD
ENDBRANCH   7   8
BRANCH   7  12
ATOM     12  C   UNL A   1       9.524   1.171   7.445  0.00  0.00    +0.003 C 
ATOM     13  H   UNL A   1       8.893   0.281   7.544  0.00  0.00    +0.043 HD
ATOM     14  H   UNL A   1       9.534   1.681   8.415  0.00  0.00    +0.043 HD
BRANCH  12  15
ATOM     15  C   UNL A   1       8.825   2.118   6.419  0.00  0.00    -0.015 C 
ATOM     16  H   UNL A   1       8.922   1.668   5.421  0.00  0.00    +0.033 HD
ATOM     17  H   UNL A   1       7.754   2.181   6.648  0.00  0.00    +0.033 HD
BRANCH  15  18
ATOM     18  C   UNL A   1       9.376   3.535   6.270  0.00  0.00    -0.043 A 
ATOM     19  C   UNL A   1      10.636   3.832   5.724  0.00  0.00    -0.013 A 
ATOM     20  C   UNL A   1       8.560   4.613   6.641  0.00  0.00    -0.055 A 
ATOM     21  C   UNL A   1      11.038   5.159   5.440  0.00  0.00    +0.162 A 
ATOM     22  C   UNL A   1       8.965   5.931   6.404  0.00  0.00    -0.016 A 
ATOM     23  C   UNL A   1      10.185   6.219   5.778  0.00  0.00    +0.162 A 
ATOM     24  H   UNL A   1      11.311   3.012   5.513  0.00  0.00    +0.066 HD
ATOM     25  H   UNL A   1       7.591   4.440   7.104  0.00  0.00    +0.062 HD
ATOM     26  H   UNL A   1       8.308   6.750   6.694  0.00  0.00    +0.066 HD
BRANCH  23  27
ATOM     27  O   UNL A   1      10.374   7.566   5.587  0.00  0.00    -0.491 OA
BRANCH  27  28
ATOM     28  C   UNL A   1      10.253   8.442   6.701  0.00  0.00    +0.079 C 
ATOM     29  H   UNL A   1       9.204   8.631   6.944  0.00  0.00    +0.066 HD
ATOM     30  H   UNL A   1      10.822   8.080   7.565  0.00  0.00    +0.066 HD
ATOM     31  H   UNL A   1      10.686   9.406   6.413  0.00  0.00    +0.066 HD
ENDBRANCH  27  28
ENDBRANCH  23  27
BRANCH  21  32
ATOM     32  O   UNL A   1      12.228   5.465   4.842  0.00  0.00    -0.491 OA
BRANCH  32  33
ATOM     33  C   UNL A   1      13.373   5.717   5.643  0.00  0.00    +0.079 C 
ATOM     34  H   UNL A   1      14.076   4.882   5.568  0.00  0.00    +0.066 HD
ATOM     35  H   UNL A   1      13.858   6.670   5.404  0.00  0.00    +0.066 HD
ATOM     36  H   UNL A   1      13.037   5.788   6.681  0.00  0.00    +0.066 HD
ENDBRANCH  32  33
ENDBRANCH  21  32
ENDBRANCH  15  18
ENDBRANCH  12  15
ENDBRANCH   7  12
ENDBRANCH   4   7
ENDBRANCH   1   4
BRANCH   1  37
ATOM     37  C   UNL A   1      12.637   1.030   4.633  0.00  0.00    -0.029 C 
ATOM     38  H   UNL A   1      13.422   0.390   5.063  0.00  0.00    +0.028 HD
ATOM     39  H   UNL A   1      12.563   1.871   5.334  0.00  0.00    +0.028 HD
BRANCH  37  40
ATOM     40  C   UNL A   1      13.117   1.573   3.182  0.00  0.00    +0.085 C 
BRANCH  40  41
ATOM     41  C   UNL A   1      14.215   2.619   3.532  0.00  0.00    -0.024 A 
ATOM     42  C   UNL A   1      14.989   2.441   4.700  0.00  0.00    -0.012 A 
ATOM     43  C   UNL A   1      14.610   3.656   2.673  0.00  0.00    -0.053 A 
ATOM     44  C   UNL A   1      16.136   3.202   4.980  0.00  0.00    +0.162 A 
ATOM     45  C   UNL A   1      15.700   4.475   2.981  0.00  0.00    -0.016 A 
ATOM     46  C   UNL A   1      16.466   4.263   4.132  0.00  0.00    +0.162 A 
ATOM     47  H   UNL A   1      14.711   1.651   5.396  0.00  0.00    +0.066 HD
ATOM     48  H   UNL A   1      14.112   3.841   1.725  0.00  0.00    +0.062 HD
ATOM     49  H   UNL A   1      15.977   5.276   2.297  0.00  0.00    +0.066 HD
BRANCH  44  50
ATOM     50  O   UNL A   1      16.948   2.914   6.045  0.00  0.00    -0.491 OA
BRANCH  50  51
ATOM     51  C   UNL A   1      16.412   3.259   7.321  0.00  0.00    +0.079 C 
ATOM     52  H   UNL A   1      15.323   3.201   7.258  0.00  0.00    +0.066 HD
ATOM     53  H   UNL A   1      16.738   2.546   8.086  0.00  0.00    +0.066 HD
ATOM     54  H   UNL A   1      16.674   4.286   7.610  0.00  0.00    +0.066 HD
ENDBRANCH  50  51
ENDBRANCH  44  50
BRANCH  46  55
ATOM     55  O   UNL A   1      17.545   5.103   4.231  0.00  0.00    -0.491 OA
BRANCH  55  56
ATOM     56  C   UNL A   1      17.267   6.497   4.205  0.00  0.00    +0.079 C 
ATOM     57  H   UNL A   1      16.227   6.707   3.933  0.00  0.00    +0.066 HD
ATOM     58  H   UNL A   1      17.537   6.964   5.156  0.00  0.00    +0.066 HD
ATOM     59  H   UNL A   1      17.906   6.943   3.436  0.00  0.00    +0.066 HD
ENDBRANCH  55  56
ENDBRANCH  46  55
ENDBRANCH  40  41
BRANCH  40  60
ATOM     60  C   UNL A   1      13.616   0.352   2.313  0.00  0.00    -0.024 C 
ATOM     61  H   UNL A   1      13.554  -0.552   2.933  0.00  0.00    +0.031 HD
BRANCH  60  62
ATOM     62  C   UNL A   1      15.072   0.437   1.834  0.00  0.00    -0.061 C 
ATOM     63  H   UNL A   1      15.210   1.166   1.027  0.00  0.00    +0.023 HD
ATOM     64  H   UNL A   1      15.716   0.768   2.657  0.00  0.00    +0.023 HD
ATOM     65  H   UNL A   1      15.444  -0.528   1.483  0.00  0.00    +0.023 HD
ENDBRANCH  60  62
BRANCH  60  66
ATOM     66  C   UNL A   1      12.739   0.055   1.082  0.00  0.00    -0.061 C 
ATOM     67  H   UNL A   1      13.278   0.240   0.149  0.00  0.00    +0.023 HD
ATOM     68  H   UNL A   1      12.424  -0.995   1.084  0.00  0.00    +0.023 HD
ATOM     69  H   UNL A   1      11.820   0.648   1.078  0.00  0.00    +0.023 HD
ENDBRANCH  60  66
ENDBRANCH  40  60
BRANCH  40  71
ATOM     70  N   UNL A   1      10.966   2.879   1.996  0.00  0.00    -0.196 NA
ATOM     71  C   UNL A   1      11.941   2.286   2.534  0.00  0.00    +0.074 C 
ENDBRANCH  40  71
ENDBRANCH  37  40
ENDBRANCH   1  37
TORSDOF 21
ENDMDL
MODEL 7
REMARK VINA RESULT:    -4.735      5.374      7.526
REMARK INTER + INTRA:         -12.346
REMARK INTER:                 -10.715
REMARK INTRA:                  -1.631
REMARK UNBOUND:                -2.767
REMARK  Name = 2520
REMARK  21 active torsions:
REMARK  status: ('A' for Active; 'I' for Inactive)
REMARK    1  A    between atoms: O_1  and  C_19
REMARK    2  A    between atoms: O_1  and  C_28
REMARK    3  A    between atoms: O_2  and  C_23
REMARK    4  A    between atoms: O_2  and  C_31
REMARK    5  A    between atoms: O_3  and  C_27
REMARK    6  A    between atoms: O_3  and  C_32
REMARK    7  A    between atoms: O_4  and  C_30
REMARK    8  A    between atoms: O_4  and  C_33
REMARK    9  A    between atoms: N_5  and  C_12
REMARK   10  A    between atoms: N_5  and  C_18
REMARK   11  A    between atoms: N_5  and  C_20
REMARK   12  A    between atoms: C_7  and  C_8
REMARK   13  A    between atoms: C_7  and  C_9
REMARK   14  A    between atoms: C_7  and  C_11
REMARK   15  A    between atoms: C_7  and  C_15
REMARK   16  A    between atoms: C_8  and  C_13
REMARK   17  A    between atoms: C_8  and  C_14
REMARK   18  A    between atoms: C_9  and  C_10
REMARK   19  A    between atoms: C_10  and  C_12
REMARK   20  A    between atoms: C_18  and  C_22
REMARK   21  A    between atoms: C_22  and  C_24
REMARK                            x       y       z     vdW  Elec       q    Type
REMARK                         _______ _______ _______ _____ _____    ______ ____
ROOT
ATOM      1  C   UNL A   1     -26.626  -3.447  28.439  0.00  0.00    -0.038 C 
ATOM      2  H   UNL A   1     -26.633  -2.353  28.414  0.00  0.00    +0.028 HD
ATOM      3  H   UNL A   1     -27.657  -3.788  28.317  0.00  0.00    +0.028 HD
ENDROOT
BRANCH   1   4
ATOM      4  C   UNL A   1     -26.142  -3.884  29.845  0.00  0.00    -0.001 C 
ATOM      5  H   UNL A   1     -25.169  -4.388  29.781  0.00  0.00    +0.043 HD
ATOM      6  H   UNL A   1     -25.976  -2.965  30.422  0.00  0.00    +0.043 HD
BRANCH   4   7
ATOM      7  N   UNL A   1     -27.128  -4.742  30.569  0.00  0.00    -0.305 NA
BRANCH   7   8
ATOM      8  C   UNL A   1     -27.843  -3.947  31.574  0.00  0.00    -0.013 C 
ATOM      9  H   UNL A   1     -28.090  -4.526  32.471  0.00  0.00    +0.039 HD
ATOM     10  H   UNL A   1     -27.248  -3.077  31.879  0.00  0.00    +0.039 HD
ATOM     11  H   UNL A   1     -28.766  -3.527  31.159  0.00  0.00    +0.039 HD
ENDBRANCH   7   8
BRANCH   7  12
ATOM     12  C   UNL A   1     -26.487  -5.952  31.162  0.00  0.00    +0.003 C 
ATOM     13  H   UNL A   1     -27.280  -6.689  31.326  0.00  0.00    +0.043 HD
ATOM     14  H   UNL A   1     -25.784  -6.377  30.436  0.00  0.00    +0.043 HD
BRANCH  12  15
ATOM     15  C   UNL A   1     -25.727  -5.785  32.515  0.00  0.00    -0.015 C 
ATOM     16  H   UNL A   1     -24.724  -6.218  32.398  0.00  0.00    +0.033 HD
ATOM     17  H   UNL A   1     -25.601  -4.718  32.736  0.00  0.00    +0.033 HD
BRANCH  15  18
ATOM     18  C   UNL A   1     -26.312  -6.470  33.749  0.00  0.00    -0.043 A 
ATOM     19  C   UNL A   1     -26.834  -5.779  34.856  0.00  0.00    -0.013 A 
ATOM     20  C   UNL A   1     -26.394  -7.870  33.763  0.00  0.00    -0.055 A 
ATOM     21  C   UNL A   1     -27.524  -6.442  35.899  0.00  0.00    +0.162 A 
ATOM     22  C   UNL A   1     -27.038  -8.539  34.809  0.00  0.00    -0.016 A 
ATOM     23  C   UNL A   1     -27.633  -7.839  35.866  0.00  0.00    +0.162 A 
ATOM     24  H   UNL A   1     -26.701  -4.705  34.900  0.00  0.00    +0.066 HD
ATOM     25  H   UNL A   1     -25.971  -8.457  32.949  0.00  0.00    +0.062 HD
ATOM     26  H   UNL A   1     -27.094  -9.627  34.790  0.00  0.00    +0.066 HD
BRANCH  23  27
ATOM     27  O   UNL A   1     -28.259  -8.671  36.762  0.00  0.00    -0.491 OA
BRANCH  27  28
ATOM     28  C   UNL A   1     -29.646  -8.942  36.595  0.00  0.00    +0.079 C 
ATOM     29  H   UNL A   1     -29.931  -9.869  37.098  0.00  0.00    +0.066 HD
ATOM     30  H   UNL A   1     -30.265  -8.092  36.907  0.00  0.00    +0.066 HD
ATOM     31  H   UNL A   1     -29.828  -9.097  35.527  0.00  0.00    +0.066 HD
ENDBRANCH  27  28
ENDBRANCH  23  27
BRANCH  21  32
ATOM     32  O   UNL A   1     -28.102  -5.782  36.946  0.00  0.00    -0.491 OA
BRANCH  32  33
ATOM     33  C   UNL A   1     -28.844  -4.595  36.707  0.00  0.00    +0.079 C 
ATOM     34  H   UNL A   1     -28.256  -3.900  36.100  0.00  0.00    +0.066 HD
ATOM     35  H   UNL A   1     -29.823  -4.789  36.256  0.00  0.00    +0.066 HD
ATOM     36  H   UNL A   1     -29.032  -4.125  37.676  0.00  0.00    +0.066 HD
ENDBRANCH  32  33
ENDBRANCH  21  32
ENDBRANCH  15  18
ENDBRANCH  12  15
ENDBRANCH   7  12
ENDBRANCH   4   7
ENDBRANCH   1   4
BRANCH   1  37
ATOM     37  C   UNL A   1     -25.758  -3.985  27.252  0.00  0.00    -0.029 C 
ATOM     38  H   UNL A   1     -24.824  -4.382  27.676  0.00  0.00    +0.028 HD
ATOM     39  H   UNL A   1     -25.434  -3.139  26.633  0.00  0.00    +0.028 HD
BRANCH  37  40
ATOM     40  C   UNL A   1     -26.448  -5.113  26.312  0.00  0.00    +0.085 C 
BRANCH  40  41
ATOM     41  C   UNL A   1     -25.848  -4.827  24.905  0.00  0.00    -0.024 A 
ATOM     42  C   UNL A   1     -24.885  -3.804  24.761  0.00  0.00    -0.012 A 
ATOM     43  C   UNL A   1     -26.079  -5.632  23.778  0.00  0.00    -0.053 A 
ATOM     44  C   UNL A   1     -24.135  -3.621  23.587  0.00  0.00    +0.162 A 
ATOM     45  C   UNL A   1     -25.398  -5.406  22.577  0.00  0.00    -0.016 A 
ATOM     46  C   UNL A   1     -24.431  -4.403  22.467  0.00  0.00    +0.162 A 
ATOM     47  H   UNL A   1     -24.683  -3.153  25.610  0.00  0.00    +0.066 HD
ATOM     48  H   UNL A   1     -26.761  -6.476  23.802  0.00  0.00    +0.062 HD
ATOM     49  H   UNL A   1     -25.605  -6.045  21.719  0.00  0.00    +0.066 HD
BRANCH  44  50
ATOM     50  O   UNL A   1     -23.109  -2.715  23.523  0.00  0.00    -0.491 OA
BRANCH  50  51
ATOM     51  C   UNL A   1     -22.734  -2.141  24.774  0.00  0.00    +0.079 C 
ATOM     52  H   UNL A   1     -23.411  -1.309  24.981  0.00  0.00    +0.066 HD
ATOM     53  H   UNL A   1     -22.846  -2.868  25.586  0.00  0.00    +0.066 HD
ATOM     54  H   UNL A   1     -21.712  -1.740  24.749  0.00  0.00    +0.066 HD
ENDBRANCH  50  51
ENDBRANCH  44  50
BRANCH  46  55
ATOM     55  O   UNL A   1     -23.805  -4.381  21.248  0.00  0.00    -0.491 OA
BRANCH  55  56
ATOM     56  C   UNL A   1     -24.521  -3.774  20.180  0.00  0.00    +0.079 C 
ATOM     57  H   UNL A   1     -23.941  -3.754  19.251  0.00  0.00    +0.066 HD
ATOM     58  H   UNL A   1     -25.491  -4.259  20.039  0.00  0.00    +0.066 HD
ATOM     59  H   UNL A   1     -24.721  -2.737  20.468  0.00  0.00    +0.066 HD
ENDBRANCH  55  56
ENDBRANCH  46  55
ENDBRANCH  40  41
BRANCH  40  60
ATOM     60  C   UNL A   1     -26.119  -6.543  26.895  0.00  0.00    -0.024 C 
ATOM     61  H   UNL A   1     -25.977  -7.228  26.049  0.00  0.00    +0.031 HD
BRANCH  60  62
ATOM     62  C   UNL A   1     -27.220  -7.168  27.765  0.00  0.00    -0.061 C 
ATOM     63  H   UNL A   1     -28.047  -7.576  27.171  0.00  0.00    +0.023 HD
ATOM     64  H   UNL A   1     -26.811  -8.009  28.336  0.00  0.00    +0.023 HD
ATOM     65  H   UNL A   1     -27.637  -6.450  28.474  0.00  0.00    +0.023 HD
ENDBRANCH  60  62
BRANCH  60  66
ATOM     66  C   UNL A   1     -24.803  -6.611  27.693  0.00  0.00    -0.061 C 
ATOM     67  H   UNL A   1     -24.385  -7.621  27.695  0.00  0.00    +0.023 HD
ATOM     68  H   UNL A   1     -24.056  -5.941  27.251  0.00  0.00    +0.023 HD
ATOM     69  H   UNL A   1     -24.931  -6.283  28.727  0.00  0.00    +0.023 HD
ENDBRANCH  60  66
ENDBRANCH  40  60
BRANCH  40  71
ATOM     70  N   UNL A   1     -29.185  -4.624  26.248  0.00  0.00    -0.196 NA
ATOM     71  C   UNL A   1     -27.944  -4.846  26.277  0.00  0.00    +0.074 C 
ENDBRANCH  40  71
ENDBRANCH  37  40
ENDBRANCH   1  37
TORSDOF 21
ENDMDL
MODEL 8
REMARK VINA RESULT:    -4.728      3.774      6.278
REMARK INTER + INTRA:         -12.331
REMARK INTER:                 -10.551
REMARK INTRA:                  -1.780
REMARK UNBOUND:                -2.767
REMARK  Name = 2520
REMARK  21 active torsions:
REMARK  status: ('A' for Active; 'I' for Inactive)
REMARK    1  A    between atoms: O_1  and  C_19
REMARK    2  A    between atoms: O_1  and  C_28
REMARK    3  A    between atoms: O_2  and  C_23
REMARK    4  A    between atoms: O_2  and  C_31
REMARK    5  A    between atoms: O_3  and  C_27
REMARK    6  A    between atoms: O_3  and  C_32
REMARK    7  A    between atoms: O_4  and  C_30
REMARK    8  A    between atoms: O_4  and  C_33
REMARK    9  A    between atoms: N_5  and  C_12
REMARK   10  A    between atoms: N_5  and  C_18
REMARK   11  A    between atoms: N_5  and  C_20
REMARK   12  A    between atoms: C_7  and  C_8
REMARK   13  A    between atoms: C_7  and  C_9
REMARK   14  A    between atoms: C_7  and  C_11
REMARK   15  A    between atoms: C_7  and  C_15
REMARK   16  A    between atoms: C_8  and  C_13
REMARK   17  A    between atoms: C_8  and  C_14
REMARK   18  A    between atoms: C_9  and  C_10
REMARK   19  A    between atoms: C_10  and  C_12
REMARK   20  A    between atoms: C_18  and  C_22
REMARK   21  A    between atoms: C_22  and  C_24
REMARK                            x       y       z     vdW  Elec       q    Type
REMARK                         _______ _______ _______ _____ _____    ______ ____
ROOT
ATOM      1  C   UNL A   1     -27.552  -2.719  25.617  0.00  0.00    -0.038 C 
ATOM      2  H   UNL A   1     -28.474  -2.230  25.289  0.00  0.00    +0.028 HD
ATOM      3  H   UNL A   1     -27.785  -3.769  25.814  0.00  0.00    +0.028 HD
ENDROOT
BRANCH   1   4
ATOM      4  C   UNL A   1     -27.121  -2.067  26.956  0.00  0.00    -0.001 C 
ATOM      5  H   UNL A   1     -26.171  -1.529  26.836  0.00  0.00    +0.043 HD
ATOM      6  H   UNL A   1     -27.877  -1.308  27.195  0.00  0.00    +0.043 HD
BRANCH   4   7
ATOM      7  N   UNL A   1     -27.032  -3.039  28.086  0.00  0.00    -0.305 NA
BRANCH   7   8
ATOM      8  C   UNL A   1     -25.722  -2.932  28.738  0.00  0.00    -0.013 C 
ATOM      9  H   UNL A   1     -25.759  -3.190  29.803  0.00  0.00    +0.039 HD
ATOM     10  H   UNL A   1     -24.988  -3.585  28.252  0.00  0.00    +0.039 HD
ATOM     11  H   UNL A   1     -25.313  -1.921  28.635  0.00  0.00    +0.039 HD
ENDBRANCH   7   8
BRANCH   7  12
ATOM     12  C   UNL A   1     -27.330  -4.434  27.650  0.00  0.00    +0.003 C 
ATOM     13  H   UNL A   1     -28.391  -4.615  27.852  0.00  0.00    +0.043 HD
ATOM     14  H   UNL A   1     -27.181  -4.509  26.566  0.00  0.00    +0.043 HD
BRANCH  12  15
ATOM     15  C   UNL A   1     -26.529  -5.594  28.320  0.00  0.00    -0.015 C 
ATOM     16  H   UNL A   1     -26.197  -6.280  27.528  0.00  0.00    +0.033 HD
ATOM     17  H   UNL A   1     -25.631  -5.189  28.802  0.00  0.00    +0.033 HD
BRANCH  15  18
ATOM     18  C   UNL A   1     -27.265  -6.478  29.326  0.00  0.00    -0.043 A 
ATOM     19  C   UNL A   1     -27.115  -6.371  30.719  0.00  0.00    -0.013 A 
ATOM     20  C   UNL A   1     -28.191  -7.414  28.845  0.00  0.00    -0.055 A 
ATOM     21  C   UNL A   1     -27.941  -7.083  31.621  0.00  0.00    +0.162 A 
ATOM     22  C   UNL A   1     -28.985  -8.154  29.727  0.00  0.00    -0.016 A 
ATOM     23  C   UNL A   1     -28.892  -7.980  31.114  0.00  0.00    +0.162 A 
ATOM     24  H   UNL A   1     -26.343  -5.716  31.104  0.00  0.00    +0.066 HD
ATOM     25  H   UNL A   1     -28.320  -7.565  27.774  0.00  0.00    +0.062 HD
ATOM     26  H   UNL A   1     -29.703  -8.868  29.326  0.00  0.00    +0.066 HD
BRANCH  23  27
ATOM     27  O   UNL A   1     -29.790  -8.758  31.803  0.00  0.00    -0.491 OA
BRANCH  27  28
ATOM     28  C   UNL A   1     -31.092  -8.244  32.059  0.00  0.00    +0.079 C 
ATOM     29  H   UNL A   1     -31.308  -8.230  33.130  0.00  0.00    +0.066 HD
ATOM     30  H   UNL A   1     -31.240  -7.264  31.591  0.00  0.00    +0.066 HD
ATOM     31  H   UNL A   1     -31.814  -8.930  31.603  0.00  0.00    +0.066 HD
ENDBRANCH  27  28
ENDBRANCH  23  27
BRANCH  21  32
ATOM     32  O   UNL A   1     -27.861  -6.939  32.977  0.00  0.00    -0.491 OA
BRANCH  32  33
ATOM     33  C   UNL A   1     -26.596  -6.741  33.590  0.00  0.00    +0.079 C 
ATOM     34  H   UNL A   1     -26.584  -5.790  34.130  0.00  0.00    +0.066 HD
ATOM     35  H   UNL A   1     -26.302  -7.573  34.239  0.00  0.00    +0.066 HD
ATOM     36  H   UNL A   1     -25.850  -6.688  32.792  0.00  0.00    +0.066 HD
ENDBRANCH  32  33
ENDBRANCH  21  32
ENDBRANCH  15  18
ENDBRANCH  12  15
ENDBRANCH   7  12
ENDBRANCH   4   7
ENDBRANCH   1   4
BRANCH   1  37
ATOM     37  C   UNL A   1     -26.486  -2.631  24.473  0.00  0.00    -0.029 C 
ATOM     38  H   UNL A   1     -25.771  -1.840  24.744  0.00  0.00    +0.028 HD
ATOM     39  H   UNL A   1     -26.969  -2.256  23.563  0.00  0.00    +0.028 HD
BRANCH  37  40
ATOM     40  C   UNL A   1     -25.679  -3.997  24.137  0.00  0.00    +0.085 C 
BRANCH  40  41
ATOM     41  C   UNL A   1     -25.308  -3.838  22.634  0.00  0.00    -0.024 A 
ATOM     42  C   UNL A   1     -24.622  -2.678  22.213  0.00  0.00    -0.012 A 
ATOM     43  C   UNL A   1     -25.465  -4.853  21.678  0.00  0.00    -0.053 A 
ATOM     44  C   UNL A   1     -24.057  -2.547  20.933  0.00  0.00    +0.162 A 
ATOM     45  C   UNL A   1     -24.981  -4.701  20.375  0.00  0.00    -0.016 A 
ATOM     46  C   UNL A   1     -24.282  -3.553  19.989  0.00  0.00    +0.162 A 
ATOM     47  H   UNL A   1     -24.485  -1.864  22.924  0.00  0.00    +0.066 HD
ATOM     48  H   UNL A   1     -25.933  -5.804  21.917  0.00  0.00    +0.062 HD
ATOM     49  H   UNL A   1     -25.125  -5.505  19.655  0.00  0.00    +0.066 HD
BRANCH  44  50
ATOM     50  O   UNL A   1     -23.275  -1.472  20.599  0.00  0.00    -0.491 OA
BRANCH  50  51
ATOM     51  C   UNL A   1     -22.918  -0.624  21.688  0.00  0.00    +0.079 C 
ATOM     52  H   UNL A   1     -21.832  -0.508  21.686  0.00  0.00    +0.066 HD
ATOM     53  H   UNL A   1     -23.357   0.372  21.566  0.00  0.00    +0.066 HD
ATOM     54  H   UNL A   1     -23.205  -1.059  22.655  0.00  0.00    +0.066 HD
ENDBRANCH  50  51
ENDBRANCH  44  50
BRANCH  46  55
ATOM     55  O   UNL A   1     -23.807  -3.609  18.705  0.00  0.00    -0.491 OA
BRANCH  55  56
ATOM     56  C   UNL A   1     -22.528  -4.206  18.529  0.00  0.00    +0.079 C 
ATOM     57  H   UNL A   1     -22.520  -5.263  18.818  0.00  0.00    +0.066 HD
ATOM     58  H   UNL A   1     -22.173  -4.065  17.505  0.00  0.00    +0.066 HD
ATOM     59  H   UNL A   1     -21.829  -3.678  19.186  0.00  0.00    +0.066 HD
ENDBRANCH  55  56
ENDBRANCH  46  55
ENDBRANCH  40  41
BRANCH  40  60
ATOM     60  C   UNL A   1     -24.445  -4.122  25.115  0.00  0.00    -0.024 C 
ATOM     61  H   UNL A   1     -24.804  -4.555  26.058  0.00  0.00    +0.031 HD
BRANCH  60  62
ATOM     62  C   UNL A   1     -23.766  -2.796  25.491  0.00  0.00    -0.061 C 
ATOM     63  H   UNL A   1     -23.704  -2.100  24.646  0.00  0.00    +0.023 HD
ATOM     64  H   UNL A   1     -24.349  -2.285  26.265  0.00  0.00    +0.023 HD
ATOM     65  H   UNL A   1     -22.756  -2.949  25.875  0.00  0.00    +0.023 HD
ENDBRANCH  60  62
BRANCH  60  66
ATOM     66  C   UNL A   1     -23.347  -5.084  24.624  0.00  0.00    -0.061 C 
ATOM     67  H   UNL A   1     -22.639  -5.327  25.421  0.00  0.00    +0.023 HD
ATOM     68  H   UNL A   1     -23.792  -6.023  24.274  0.00  0.00    +0.023 HD
ATOM     69  H   UNL A   1     -22.792  -4.676  23.776  0.00  0.00    +0.023 HD
ENDBRANCH  60  66
ENDBRANCH  40  60
BRANCH  40  71
ATOM     70  N   UNL A   1     -27.442  -6.130  24.417  0.00  0.00    -0.196 NA
ATOM     71  C   UNL A   1     -26.642  -5.163  24.290  0.00  0.00    +0.074 C 
ENDBRANCH  40  71
ENDBRANCH  37  40
ENDBRANCH   1  37
TORSDOF 21
ENDMDL
MODEL 9
REMARK VINA RESULT:    -4.667     35.590     38.583
REMARK INTER + INTRA:         -12.209
REMARK INTER:                  -9.442
REMARK INTRA:                  -2.767
REMARK UNBOUND:                -2.767
REMARK  Name = 2520
REMARK  21 active torsions:
REMARK  status: ('A' for Active; 'I' for Inactive)
REMARK    1  A    between atoms: O_1  and  C_19
REMARK    2  A    between atoms: O_1  and  C_28
REMARK    3  A    between atoms: O_2  and  C_23
REMARK    4  A    between atoms: O_2  and  C_31
REMARK    5  A    between atoms: O_3  and  C_27
REMARK    6  A    between atoms: O_3  and  C_32
REMARK    7  A    between atoms: O_4  and  C_30
REMARK    8  A    between atoms: O_4  and  C_33
REMARK    9  A    between atoms: N_5  and  C_12
REMARK   10  A    between atoms: N_5  and  C_18
REMARK   11  A    between atoms: N_5  and  C_20
REMARK   12  A    between atoms: C_7  and  C_8
REMARK   13  A    between atoms: C_7  and  C_9
REMARK   14  A    between atoms: C_7  and  C_11
REMARK   15  A    between atoms: C_7  and  C_15
REMARK   16  A    between atoms: C_8  and  C_13
REMARK   17  A    between atoms: C_8  and  C_14
REMARK   18  A    between atoms: C_9  and  C_10
REMARK   19  A    between atoms: C_10  and  C_12
REMARK   20  A    between atoms: C_18  and  C_22
REMARK   21  A    between atoms: C_22  and  C_24
REMARK                            x       y       z     vdW  Elec       q    Type
REMARK                         _______ _______ _______ _____ _____    ______ ____
ROOT
ATOM      1  C   UNL A   1     -21.003  12.624  -7.521  0.00  0.00    -0.038 C 
ATOM      2  H   UNL A   1     -21.895  12.155  -7.097  0.00  0.00    +0.028 HD
ATOM      3  H   UNL A   1     -20.319  12.844  -6.696  0.00  0.00    +0.028 HD
ENDROOT
BRANCH   1   4
ATOM      4  C   UNL A   1     -21.433  13.972  -8.155  0.00  0.00    -0.001 C 
ATOM      5  H   UNL A   1     -20.718  14.765  -7.901  0.00  0.00    +0.043 HD
ATOM      6  H   UNL A   1     -21.375  13.841  -9.243  0.00  0.00    +0.043 HD
BRANCH   4   7
ATOM      7  N   UNL A   1     -22.822  14.382  -7.787  0.00  0.00    -0.305 NA
BRANCH   7   8
ATOM      8  C   UNL A   1     -22.780  15.411  -6.742  0.00  0.00    -0.013 C 
ATOM      9  H   UNL A   1     -21.846  15.390  -6.168  0.00  0.00    +0.039 HD
ATOM     10  H   UNL A   1     -22.895  16.412  -7.174  0.00  0.00    +0.039 HD
ATOM     11  H   UNL A   1     -23.621  15.302  -6.048  0.00  0.00    +0.039 HD
ENDBRANCH   7   8
BRANCH   7  12
ATOM     12  C   UNL A   1     -23.665  13.215  -7.394  0.00  0.00    +0.003 C 
ATOM     13  H   UNL A   1     -22.986  12.381  -7.192  0.00  0.00    +0.043 HD
ATOM     14  H   UNL A   1     -24.188  13.451  -6.460  0.00  0.00    +0.043 HD
BRANCH  12  15
ATOM     15  C   UNL A   1     -24.727  12.707  -8.418  0.00  0.00    -0.015 C 
ATOM     16  H   UNL A   1     -24.988  11.673  -8.153  0.00  0.00    +0.033 HD
ATOM     17  H   UNL A   1     -25.639  13.309  -8.331  0.00  0.00    +0.033 HD
BRANCH  15  18
ATOM     18  C   UNL A   1     -24.323  12.647  -9.891  0.00  0.00    -0.043 A 
ATOM     19  C   UNL A   1     -24.491  13.712 -10.793  0.00  0.00    -0.013 A 
ATOM     20  C   UNL A   1     -23.693  11.489 -10.367  0.00  0.00    -0.055 A 
ATOM     21  C   UNL A   1     -23.948  13.683 -12.099  0.00  0.00    +0.162 A 
ATOM     22  C   UNL A   1     -23.188  11.433 -11.670  0.00  0.00    -0.016 A 
ATOM     23  C   UNL A   1     -23.281  12.530 -12.537  0.00  0.00    +0.162 A 
ATOM     24  H   UNL A   1     -25.052  14.578 -10.466  0.00  0.00    +0.066 HD
ATOM     25  H   UNL A   1     -23.572  10.620  -9.722  0.00  0.00    +0.062 HD
ATOM     26  H   UNL A   1     -22.695  10.524 -12.011  0.00  0.00    +0.066 HD
BRANCH  23  27
ATOM     27  O   UNL A   1     -22.679  12.295 -13.748  0.00  0.00    -0.491 OA
BRANCH  27  28
ATOM     28  C   UNL A   1     -23.497  12.091 -14.894  0.00  0.00    +0.079 C 
ATOM     29  H   UNL A   1     -23.880  11.068 -14.929  0.00  0.00    +0.066 HD
ATOM     30  H   UNL A   1     -24.296  12.838 -14.961  0.00  0.00    +0.066 HD
ATOM     31  H   UNL A   1     -22.865  12.218 -15.780  0.00  0.00    +0.066 HD
ENDBRANCH  27  28
ENDBRANCH  23  27
BRANCH  21  32
ATOM     32  O   UNL A   1     -24.036  14.735 -12.966  0.00  0.00    -0.491 OA
BRANCH  32  33
ATOM     33  C   UNL A   1     -23.172  15.850 -12.809  0.00  0.00    +0.079 C 
ATOM     34  H   UNL A   1     -23.531  16.493 -11.999  0.00  0.00    +0.066 HD
ATOM     35  H   UNL A   1     -22.127  15.561 -12.655  0.00  0.00    +0.066 HD
ATOM     36  H   UNL A   1     -23.205  16.425 -13.739  0.00  0.00    +0.066 HD
ENDBRANCH  32  33
ENDBRANCH  21  32
ENDBRANCH  15  18
ENDBRANCH  12  15
ENDBRANCH   7  12
ENDBRANCH   4   7
ENDBRANCH   1   4
BRANCH   1  37
ATOM     37  C   UNL A   1     -20.316  11.625  -8.512  0.00  0.00    -0.029 C 
ATOM     38  H   UNL A   1     -19.244  11.871  -8.543  0.00  0.00    +0.028 HD
ATOM     39  H   UNL A   1     -20.668  11.832  -9.530  0.00  0.00    +0.028 HD
BRANCH  37  40
ATOM     40  C   UNL A   1     -20.500  10.047  -8.183  0.00  0.00    +0.085 C 
BRANCH  40  41
ATOM     41  C   UNL A   1     -20.329   9.366  -9.571  0.00  0.00    -0.024 A 
ATOM     42  C   UNL A   1     -19.225   9.715 -10.379  0.00  0.00    -0.012 A 
ATOM     43  C   UNL A   1     -21.117   8.294 -10.019  0.00  0.00    -0.053 A 
ATOM     44  C   UNL A   1     -18.870   9.003 -11.537  0.00  0.00    +0.162 A 
ATOM     45  C   UNL A   1     -20.823   7.630 -11.214  0.00  0.00    -0.016 A 
ATOM     46  C   UNL A   1     -19.709   7.977 -11.984  0.00  0.00    +0.162 A 
ATOM     47  H   UNL A   1     -18.593  10.546 -10.070  0.00  0.00    +0.066 HD
ATOM     48  H   UNL A   1     -21.957   7.916  -9.444  0.00  0.00    +0.062 HD
ATOM     49  H   UNL A   1     -21.458   6.806 -11.537  0.00  0.00    +0.066 HD
BRANCH  44  50
ATOM     50  O   UNL A   1     -17.714   9.273 -12.222  0.00  0.00    -0.491 OA
BRANCH  50  51
ATOM     51  C   UNL A   1     -17.811  10.330 -13.173  0.00  0.00    +0.079 C 
ATOM     52  H   UNL A   1     -18.025   9.889 -14.150  0.00  0.00    +0.066 HD
ATOM     53  H   UNL A   1     -18.640  11.002 -12.926  0.00  0.00    +0.066 HD
ATOM     54  H   UNL A   1     -16.869  10.890 -13.260  0.00  0.00    +0.066 HD
ENDBRANCH  50  51
ENDBRANCH  44  50
BRANCH  46  55
ATOM     55  O   UNL A   1     -19.525   7.168 -13.074  0.00  0.00    -0.491 OA
BRANCH  55  56
ATOM     56  C   UNL A   1     -20.165   5.899 -13.036  0.00  0.00    +0.079 C 
ATOM     57  H   UNL A   1     -20.778   5.771 -12.137  0.00  0.00    +0.066 HD
ATOM     58  H   UNL A   1     -20.745   5.730 -13.947  0.00  0.00    +0.066 HD
ATOM     59  H   UNL A   1     -19.379   5.138 -13.011  0.00  0.00    +0.066 HD
ENDBRANCH  55  56
ENDBRANCH  46  55
ENDBRANCH  40  41
BRANCH  40  60
ATOM     60  C   UNL A   1     -19.435   9.618  -7.098  0.00  0.00    -0.024 C 
ATOM     61  H   UNL A   1     -19.910   9.693  -6.111  0.00  0.00    +0.031 HD
BRANCH  60  62
ATOM     62  C   UNL A   1     -18.177  10.496  -7.028  0.00  0.00    -0.061 C 
ATOM     63  H   UNL A   1     -18.145  11.119  -6.127  0.00  0.00    +0.023 HD
ATOM     64  H   UNL A   1     -17.283   9.863  -6.993  0.00  0.00    +0.023 HD
ATOM     65  H   UNL A   1     -18.089  11.154  -7.896  0.00  0.00    +0.023 HD
ENDBRANCH  60  62
BRANCH  60  66
ATOM     66  C   UNL A   1     -18.974   8.153  -7.213  0.00  0.00    -0.061 C 
ATOM     67  H   UNL A   1     -19.699   7.545  -7.760  0.00  0.00    +0.023 HD
ATOM     68  H   UNL A   1     -18.018   8.096  -7.749  0.00  0.00    +0.023 HD
ATOM     69  H   UNL A   1     -18.801   7.698  -6.235  0.00  0.00    +0.023 HD
ENDBRANCH  60  66
ENDBRANCH  40  60
BRANCH  40  71
ATOM     70  N   UNL A   1     -23.105   9.652  -7.291  0.00  0.00    -0.196 NA
ATOM     71  C   UNL A   1     -21.923   9.831  -7.695  0.00  0.00    +0.074 C 
ENDBRANCH  40  71
ENDBRANCH  37  40
ENDBRANCH   1  37
TORSDOF 21
ENDMDL
