MODEL 1
REMARK VINA RESULT:    -6.337      0.000      0.000
REMARK INTER + INTRA:         -15.142
REMARK INTER:                 -13.022
REMARK INTRA:                  -2.120
REMARK UNBOUND:                -2.322
REMARK  Name = 2520
REMARK  21 active torsions:
REMARK  status: ('A' for Active; 'I' for Inactive)
REMARK    1  A    between atoms: O_1  and  C_19
REMARK    2  A    between atoms: O_1  and  C_28
REMARK    3  A    between atoms: O_2  and  C_23
REMARK    4  A    between atoms: O_2  and  C_31
REMARK    5  A    between atoms: O_3  and  C_27
REMARK    6  A    between atoms: O_3  and  C_32
REMARK    7  A    between atoms: O_4  and  C_30
REMARK    8  A    between atoms: O_4  and  C_33
REMARK    9  A    between atoms: N_5  and  C_12
REMARK   10  A    between atoms: N_5  and  C_18
REMARK   11  A    between atoms: N_5  and  C_20
REMARK   12  A    between atoms: C_7  and  C_8
REMARK   13  A    between atoms: C_7  and  C_9
REMARK   14  A    between atoms: C_7  and  C_11
REMARK   15  A    between atoms: C_7  and  C_15
REMARK   16  A    between atoms: C_8  and  C_13
REMARK   17  A    between atoms: C_8  and  C_14
REMARK   18  A    between atoms: C_9  and  C_10
REMARK   19  A    between atoms: C_10  and  C_12
REMARK   20  A    between atoms: C_18  and  C_22
REMARK   21  A    between atoms: C_22  and  C_24
REMARK                            x       y       z     vdW  Elec       q    Type
REMARK                         _______ _______ _______ _____ _____    ______ ____
ROOT
ATOM      1  C   UNL A   1      -5.916  -2.232   1.117  0.00  0.00    -0.038 C 
ATOM      2  H   UNL A   1      -6.059  -1.435   0.381  0.00  0.00    +0.028 HD
ATOM      3  H   UNL A   1      -5.566  -1.769   2.043  0.00  0.00    +0.028 HD
ENDROOT
BRANCH   1   4
ATOM      4  C   UNL A   1      -4.792  -3.162   0.593  0.00  0.00    -0.001 C 
ATOM      5  H   UNL A   1      -4.279  -3.657   1.429  0.00  0.00    +0.043 HD
ATOM      6  H   UNL A   1      -5.284  -3.959   0.019  0.00  0.00    +0.043 HD
BRANCH   4   7
ATOM      7  N   UNL A   1      -3.807  -2.464  -0.286  0.00  0.00    -0.305 NA
BRANCH   7   8
ATOM      8  C   UNL A   1      -3.045  -3.447  -1.064  0.00  0.00    -0.013 C 
ATOM      9  H   UNL A   1      -3.685  -4.061  -1.708  0.00  0.00    +0.039 HD
ATOM     10  H   UNL A   1      -2.299  -2.951  -1.696  0.00  0.00    +0.039 HD
ATOM     11  H   UNL A   1      -2.468  -4.107  -0.408  0.00  0.00    +0.039 HD
ENDBRANCH   7   8
BRANCH   7  12
ATOM     12  C   UNL A   1      -2.919  -1.547   0.486  0.00  0.00    +0.003 C 
ATOM     13  H   UNL A   1      -3.391  -1.387   1.461  0.00  0.00    +0.043 HD
ATOM     14  H   UNL A   1      -1.958  -2.044   0.661  0.00  0.00    +0.043 HD
BRANCH  12  15
ATOM     15  C   UNL A   1      -2.623  -0.140  -0.119  0.00  0.00    -0.015 C 
ATOM     16  H   UNL A   1      -1.717   0.253   0.362  0.00  0.00    +0.033 HD
ATOM     17  H   UNL A   1      -2.410  -0.238  -1.191  0.00  0.00    +0.033 HD
BRANCH  15  18
ATOM     18  C   UNL A   1      -3.675   0.952   0.069  0.00  0.00    -0.043 A 
ATOM     19  C   UNL A   1      -4.503   1.055   1.200  0.00  0.00    -0.013 A 
ATOM     20  C   UNL A   1      -3.790   1.948  -0.910  0.00  0.00    -0.055 A 
ATOM     21  C   UNL A   1      -5.340   2.175   1.419  0.00  0.00    +0.162 A 
ATOM     22  C   UNL A   1      -4.645   3.039  -0.724  0.00  0.00    -0.016 A 
ATOM     23  C   UNL A   1      -5.403   3.182   0.446  0.00  0.00    +0.162 A 
ATOM     24  H   UNL A   1      -4.488   0.249   1.923  0.00  0.00    +0.066 HD
ATOM     25  H   UNL A   1      -3.201   1.897  -1.824  0.00  0.00    +0.062 HD
ATOM     26  H   UNL A   1      -4.708   3.804  -1.497  0.00  0.00    +0.066 HD
BRANCH  23  27
ATOM     27  O   UNL A   1      -6.135   4.344   0.460  0.00  0.00    -0.491 OA
BRANCH  27  28
ATOM     28  C   UNL A   1      -5.608   5.481   1.132  0.00  0.00    +0.079 C 
ATOM     29  H   UNL A   1      -4.554   5.338   1.385  0.00  0.00    +0.066 HD
ATOM     30  H   UNL A   1      -5.779   6.403   0.565  0.00  0.00    +0.066 HD
ATOM     31  H   UNL A   1      -6.145   5.584   2.081  0.00  0.00    +0.066 HD
ENDBRANCH  27  28
ENDBRANCH  23  27
BRANCH  21  32
ATOM     32  O   UNL A   1      -6.097   2.330   2.546  0.00  0.00    -0.491 OA
BRANCH  32  33
ATOM     33  C   UNL A   1      -7.164   1.431   2.806  0.00  0.00    +0.079 C 
ATOM     34  H   UNL A   1      -6.965   0.865   3.721  0.00  0.00    +0.066 HD
ATOM     35  H   UNL A   1      -8.139   1.928   2.847  0.00  0.00    +0.066 HD
ATOM     36  H   UNL A   1      -7.207   0.724   1.972  0.00  0.00    +0.066 HD
ENDBRANCH  32  33
ENDBRANCH  21  32
ENDBRANCH  15  18
ENDBRANCH  12  15
ENDBRANCH   7  12
ENDBRANCH   4   7
ENDBRANCH   1   4
BRANCH   1  37
ATOM     37  C   UNL A   1      -7.286  -2.944   1.379  0.00  0.00    -0.029 C 
ATOM     38  H   UNL A   1      -7.222  -3.956   0.953  0.00  0.00    +0.028 HD
ATOM     39  H   UNL A   1      -8.065  -2.451   0.784  0.00  0.00    +0.028 HD
BRANCH  37  40
ATOM     40  C   UNL A   1      -7.762  -3.037   2.926  0.00  0.00    +0.085 C 
BRANCH  40  41
ATOM     41  C   UNL A   1      -9.074  -2.201   2.953  0.00  0.00    -0.024 A 
ATOM     42  C   UNL A   1      -9.822  -2.130   4.148  0.00  0.00    -0.012 A 
ATOM     43  C   UNL A   1      -9.492  -1.367   1.904  0.00  0.00    -0.053 A 
ATOM     44  C   UNL A   1     -10.889  -1.234   4.330  0.00  0.00    +0.162 A 
ATOM     45  C   UNL A   1     -10.604  -0.531   2.044  0.00  0.00    -0.016 A 
ATOM     46  C   UNL A   1     -11.313  -0.459   3.246  0.00  0.00    +0.162 A 
ATOM     47  H   UNL A   1      -9.535  -2.767   4.984  0.00  0.00    +0.066 HD
ATOM     48  H   UNL A   1      -8.952  -1.310   0.963  0.00  0.00    +0.062 HD
ATOM     49  H   UNL A   1     -10.906   0.100   1.209  0.00  0.00    +0.066 HD
BRANCH  44  50
ATOM     50  O   UNL A   1     -11.504  -1.085   5.546  0.00  0.00    -0.491 OA
BRANCH  50  51
ATOM     51  C   UNL A   1     -10.633  -1.143   6.673  0.00  0.00    +0.079 C 
ATOM     52  H   UNL A   1     -10.417  -2.194   6.880  0.00  0.00    +0.066 HD
ATOM     53  H   UNL A   1      -9.680  -0.647   6.455  0.00  0.00    +0.066 HD
ATOM     54  H   UNL A   1     -11.097  -0.715   7.571  0.00  0.00    +0.066 HD
ENDBRANCH  50  51
ENDBRANCH  44  50
BRANCH  46  55
ATOM     55  O   UNL A   1     -12.318   0.472   3.233  0.00  0.00    -0.491 OA
BRANCH  55  56
ATOM     56  C   UNL A   1     -11.925   1.824   3.032  0.00  0.00    +0.079 C 
ATOM     57  H   UNL A   1     -12.526   2.523   3.623  0.00  0.00    +0.066 HD
ATOM     58  H   UNL A   1     -10.856   1.949   3.224  0.00  0.00    +0.066 HD
ATOM     59  H   UNL A   1     -12.089   2.058   1.975  0.00  0.00    +0.066 HD
ENDBRANCH  55  56
ENDBRANCH  46  55
ENDBRANCH  40  41
BRANCH  40  60
ATOM     60  C   UNL A   1      -7.936  -4.556   3.323  0.00  0.00    -0.024 C 
ATOM     61  H   UNL A   1      -8.296  -4.596   4.359  0.00  0.00    +0.031 HD
BRANCH  60  62
ATOM     62  C   UNL A   1      -6.650  -5.395   3.291  0.00  0.00    -0.061 C 
ATOM     63  H   UNL A   1      -6.777  -6.382   3.752  0.00  0.00    +0.023 HD
ATOM     64  H   UNL A   1      -6.351  -5.580   2.253  0.00  0.00    +0.023 HD
ATOM     65  H   UNL A   1      -5.822  -4.893   3.795  0.00  0.00    +0.023 HD
ENDBRANCH  60  62
BRANCH  60  66
ATOM     66  C   UNL A   1      -8.999  -5.305   2.498  0.00  0.00    -0.061 C 
ATOM     67  H   UNL A   1      -9.836  -5.632   3.121  0.00  0.00    +0.023 HD
ATOM     68  H   UNL A   1      -9.401  -4.652   1.714  0.00  0.00    +0.023 HD
ATOM     69  H   UNL A   1      -8.584  -6.176   1.985  0.00  0.00    +0.023 HD
ENDBRANCH  60  66
ENDBRANCH  40  60
BRANCH  40  71
ATOM     70  N   UNL A   1      -5.846  -1.770   4.495  0.00  0.00    -0.196 NA
ATOM     71  C   UNL A   1      -6.715  -2.345   3.783  0.00  0.00    +0.074 C 
ENDBRANCH  40  71
ENDBRANCH  37  40
ENDBRANCH   1  37
TORSDOF 21
ENDMDL
MODEL 2
REMARK VINA RESULT:    -6.304      2.242      4.349
REMARK INTER + INTRA:         -15.075
REMARK INTER:                 -13.182
REMARK INTRA:                  -1.893
REMARK UNBOUND:                -2.322
REMARK  Name = 2520
REMARK  21 active torsions:
REMARK  status: ('A' for Active; 'I' for Inactive)
REMARK    1  A    between atoms: O_1  and  C_19
REMARK    2  A    between atoms: O_1  and  C_28
REMARK    3  A    between atoms: O_2  and  C_23
REMARK    4  A    between atoms: O_2  and  C_31
REMARK    5  A    between atoms: O_3  and  C_27
REMARK    6  A    between atoms: O_3  and  C_32
REMARK    7  A    between atoms: O_4  and  C_30
REMARK    8  A    between atoms: O_4  and  C_33
REMARK    9  A    between atoms: N_5  and  C_12
REMARK   10  A    between atoms: N_5  and  C_18
REMARK   11  A    between atoms: N_5  and  C_20
REMARK   12  A    between atoms: C_7  and  C_8
REMARK   13  A    between atoms: C_7  and  C_9
REMARK   14  A    between atoms: C_7  and  C_11
REMARK   15  A    between atoms: C_7  and  C_15
REMARK   16  A    between atoms: C_8  and  C_13
REMARK   17  A    between atoms: C_8  and  C_14
REMARK   18  A    between atoms: C_9  and  C_10
REMARK   19  A    between atoms: C_10  and  C_12
REMARK   20  A    between atoms: C_18  and  C_22
REMARK   21  A    between atoms: C_22  and  C_24
REMARK                            x       y       z     vdW  Elec       q    Type
REMARK                         _______ _______ _______ _____ _____    ______ ____
ROOT
ATOM      1  C   UNL A   1      -8.114  -0.585   3.035  0.00  0.00    -0.038 C 
ATOM      2  H   UNL A   1      -7.327   0.029   2.586  0.00  0.00    +0.028 HD
ATOM      3  H   UNL A   1      -8.217  -0.280   4.080  0.00  0.00    +0.028 HD
ENDROOT
BRANCH   1   4
ATOM      4  C   UNL A   1      -7.633  -2.059   3.014  0.00  0.00    -0.001 C 
ATOM      5  H   UNL A   1      -7.628  -2.479   4.028  0.00  0.00    +0.043 HD
ATOM      6  H   UNL A   1      -8.384  -2.627   2.449  0.00  0.00    +0.043 HD
BRANCH   4   7
ATOM      7  N   UNL A   1      -6.299  -2.237   2.368  0.00  0.00    -0.305 NA
BRANCH   7   8
ATOM      8  C   UNL A   1      -5.955  -3.662   2.312  0.00  0.00    -0.013 C 
ATOM      9  H   UNL A   1      -6.125  -4.098   1.321  0.00  0.00    +0.039 HD
ATOM     10  H   UNL A   1      -4.904  -3.821   2.581  0.00  0.00    +0.039 HD
ATOM     11  H   UNL A   1      -6.526  -4.234   3.051  0.00  0.00    +0.039 HD
ENDBRANCH   7   8
BRANCH   7  12
ATOM     12  C   UNL A   1      -5.240  -1.428   3.038  0.00  0.00    +0.003 C 
ATOM     13  H   UNL A   1      -5.746  -0.634   3.597  0.00  0.00    +0.043 HD
ATOM     14  H   UNL A   1      -4.713  -2.060   3.764  0.00  0.00    +0.043 HD
BRANCH  12  15
ATOM     15  C   UNL A   1      -4.165  -0.745   2.137  0.00  0.00    -0.015 C 
ATOM     16  H   UNL A   1      -3.260  -0.595   2.741  0.00  0.00    +0.033 HD
ATOM     17  H   UNL A   1      -3.900  -1.414   1.309  0.00  0.00    +0.033 HD
BRANCH  15  18
ATOM     18  C   UNL A   1      -4.490   0.634   1.563  0.00  0.00    -0.043 A 
ATOM     19  C   UNL A   1      -5.167   1.638   2.275  0.00  0.00    -0.013 A 
ATOM     20  C   UNL A   1      -4.039   0.947   0.273  0.00  0.00    -0.055 A 
ATOM     21  C   UNL A   1      -5.295   2.957   1.777  0.00  0.00    +0.162 A 
ATOM     22  C   UNL A   1      -4.196   2.235  -0.247  0.00  0.00    -0.016 A 
ATOM     23  C   UNL A   1      -4.794   3.257   0.502  0.00  0.00    +0.162 A 
ATOM     24  H   UNL A   1      -5.597   1.386   3.236  0.00  0.00    +0.066 HD
ATOM     25  H   UNL A   1      -3.542   0.194  -0.337  0.00  0.00    +0.062 HD
ATOM     26  H   UNL A   1      -3.828   2.454  -1.249  0.00  0.00    +0.066 HD
BRANCH  23  27
ATOM     27  O   UNL A   1      -4.806   4.459  -0.162  0.00  0.00    -0.491 OA
BRANCH  27  28
ATOM     28  C   UNL A   1      -3.694   5.335  -0.020  0.00  0.00    +0.079 C 
ATOM     29  H   UNL A   1      -3.281   5.288   0.991  0.00  0.00    +0.066 HD
ATOM     30  H   UNL A   1      -2.934   5.154  -0.789  0.00  0.00    +0.066 HD
ATOM     31  H   UNL A   1      -4.057   6.358  -0.162  0.00  0.00    +0.066 HD
ENDBRANCH  27  28
ENDBRANCH  23  27
BRANCH  21  32
ATOM     32  O   UNL A   1      -5.885   3.966   2.484  0.00  0.00    -0.491 OA
BRANCH  32  33
ATOM     33  C   UNL A   1      -5.109   4.740   3.385  0.00  0.00    +0.079 C 
ATOM     34  H   UNL A   1      -5.718   5.541   3.815  0.00  0.00    +0.066 HD
ATOM     35  H   UNL A   1      -4.635   4.136   4.166  0.00  0.00    +0.066 HD
ATOM     36  H   UNL A   1      -4.300   5.200   2.811  0.00  0.00    +0.066 HD
ENDBRANCH  32  33
ENDBRANCH  21  32
ENDBRANCH  15  18
ENDBRANCH  12  15
ENDBRANCH   7  12
ENDBRANCH   4   7
ENDBRANCH   1   4
BRANCH   1  37
ATOM     37  C   UNL A   1      -9.463  -0.326   2.284  0.00  0.00    -0.029 C 
ATOM     38  H   UNL A   1      -9.893  -1.304   2.025  0.00  0.00    +0.028 HD
ATOM     39  H   UNL A   1      -9.248   0.139   1.313  0.00  0.00    +0.028 HD
BRANCH  37  40
ATOM     40  C   UNL A   1     -10.567   0.559   3.077  0.00  0.00    +0.085 C 
BRANCH  40  41
ATOM     41  C   UNL A   1     -10.838  -0.270   4.366  0.00  0.00    -0.024 A 
ATOM     42  C   UNL A   1     -11.203  -1.629   4.247  0.00  0.00    -0.012 A 
ATOM     43  C   UNL A   1     -10.584   0.198   5.664  0.00  0.00    -0.053 A 
ATOM     44  C   UNL A   1     -11.252  -2.506   5.344  0.00  0.00    +0.162 A 
ATOM     45  C   UNL A   1     -10.711  -0.644   6.774  0.00  0.00    -0.016 A 
ATOM     46  C   UNL A   1     -11.050  -1.992   6.629  0.00  0.00    +0.162 A 
ATOM     47  H   UNL A   1     -11.415  -2.029   3.257  0.00  0.00    +0.066 HD
ATOM     48  H   UNL A   1     -10.247   1.213   5.857  0.00  0.00    +0.062 HD
ATOM     49  H   UNL A   1     -10.514  -0.248   7.769  0.00  0.00    +0.066 HD
BRANCH  44  50
ATOM     50  O   UNL A   1     -11.469  -3.849   5.182  0.00  0.00    -0.491 OA
BRANCH  50  51
ATOM     51  C   UNL A   1     -12.837  -4.249   5.239  0.00  0.00    +0.079 C 
ATOM     52  H   UNL A   1     -13.276  -4.098   4.250  0.00  0.00    +0.066 HD
ATOM     53  H   UNL A   1     -12.921  -5.315   5.479  0.00  0.00    +0.066 HD
ATOM     54  H   UNL A   1     -13.410  -3.644   5.954  0.00  0.00    +0.066 HD
ENDBRANCH  50  51
ENDBRANCH  44  50
BRANCH  46  55
ATOM     55  O   UNL A   1     -11.045  -2.686   7.810  0.00  0.00    -0.491 OA
BRANCH  55  56
ATOM     56  C   UNL A   1     -12.268  -2.712   8.534  0.00  0.00    +0.079 C 
ATOM     57  H   UNL A   1     -12.540  -1.725   8.924  0.00  0.00    +0.066 HD
ATOM     58  H   UNL A   1     -13.069  -3.140   7.926  0.00  0.00    +0.066 HD
ATOM     59  H   UNL A   1     -12.126  -3.378   9.392  0.00  0.00    +0.066 HD
ENDBRANCH  55  56
ENDBRANCH  46  55
ENDBRANCH  40  41
BRANCH  40  60
ATOM     60  C   UNL A   1      -9.986   2.006   3.328  0.00  0.00    -0.024 C 
ATOM     61  H   UNL A   1      -9.404   1.979   4.258  0.00  0.00    +0.031 HD
BRANCH  60  62
ATOM     62  C   UNL A   1     -11.035   3.112   3.519  0.00  0.00    -0.061 C 
ATOM     63  H   UNL A   1     -10.959   3.901   2.763  0.00  0.00    +0.023 HD
ATOM     64  H   UNL A   1     -12.042   2.691   3.421  0.00  0.00    +0.023 HD
ATOM     65  H   UNL A   1     -10.961   3.580   4.503  0.00  0.00    +0.023 HD
ENDBRANCH  60  62
BRANCH  60  66
ATOM     66  C   UNL A   1      -8.998   2.484   2.248  0.00  0.00    -0.061 C 
ATOM     67  H   UNL A   1      -7.972   2.187   2.481  0.00  0.00    +0.023 HD
ATOM     68  H   UNL A   1      -9.259   2.050   1.275  0.00  0.00    +0.023 HD
ATOM     69  H   UNL A   1      -9.027   3.568   2.115  0.00  0.00    +0.023 HD
ENDBRANCH  60  66
ENDBRANCH  40  60
BRANCH  40  71
ATOM     70  N   UNL A   1     -12.883   0.626   1.538  0.00  0.00    -0.196 NA
ATOM     71  C   UNL A   1     -11.833   0.595   2.236  0.00  0.00    +0.074 C 
ENDBRANCH  40  71
ENDBRANCH  37  40
ENDBRANCH   1  37
TORSDOF 21
ENDMDL
MODEL 3
REMARK VINA RESULT:    -6.298      1.789      2.503
REMARK INTER + INTRA:         -15.063
REMARK INTER:                 -13.495
REMARK INTRA:                  -1.568
REMARK UNBOUND:                -2.322
REMARK  Name = 2520
REMARK  21 active torsions:
REMARK  status: ('A' for Active; 'I' for Inactive)
REMARK    1  A    between atoms: O_1  and  C_19
REMARK    2  A    between atoms: O_1  and  C_28
REMARK    3  A    between atoms: O_2  and  C_23
REMARK    4  A    between atoms: O_2  and  C_31
REMARK    5  A    between atoms: O_3  and  C_27
REMARK    6  A    between atoms: O_3  and  C_32
REMARK    7  A    between atoms: O_4  and  C_30
REMARK    8  A    between atoms: O_4  and  C_33
REMARK    9  A    between atoms: N_5  and  C_12
REMARK   10  A    between atoms: N_5  and  C_18
REMARK   11  A    between atoms: N_5  and  C_20
REMARK   12  A    between atoms: C_7  and  C_8
REMARK   13  A    between atoms: C_7  and  C_9
REMARK   14  A    between atoms: C_7  and  C_11
REMARK   15  A    between atoms: C_7  and  C_15
REMARK   16  A    between atoms: C_8  and  C_13
REMARK   17  A    between atoms: C_8  and  C_14
REMARK   18  A    between atoms: C_9  and  C_10
REMARK   19  A    between atoms: C_10  and  C_12
REMARK   20  A    between atoms: C_18  and  C_22
REMARK   21  A    between atoms: C_22  and  C_24
REMARK                            x       y       z     vdW  Elec       q    Type
REMARK                         _______ _______ _______ _____ _____    ______ ____
ROOT
ATOM      1  C   UNL A   1      -5.831  -1.385   2.859  0.00  0.00    -0.038 C 
ATOM      2  H   UNL A   1      -5.820  -0.296   2.755  0.00  0.00    +0.028 HD
ATOM      3  H   UNL A   1      -6.022  -1.616   3.910  0.00  0.00    +0.028 HD
ENDROOT
BRANCH   1   4
ATOM      4  C   UNL A   1      -4.415  -1.908   2.505  0.00  0.00    -0.001 C 
ATOM      5  H   UNL A   1      -3.673  -1.530   3.221  0.00  0.00    +0.043 HD
ATOM      6  H   UNL A   1      -4.439  -2.998   2.633  0.00  0.00    +0.043 HD
BRANCH   4   7
ATOM      7  N   UNL A   1      -4.000  -1.591   1.106  0.00  0.00    -0.305 NA
BRANCH   7   8
ATOM      8  C   UNL A   1      -3.917  -2.825   0.316  0.00  0.00    -0.013 C 
ATOM      9  H   UNL A   1      -2.969  -3.355   0.463  0.00  0.00    +0.039 HD
ATOM     10  H   UNL A   1      -4.736  -3.508   0.570  0.00  0.00    +0.039 HD
ATOM     11  H   UNL A   1      -4.042  -2.618  -0.753  0.00  0.00    +0.039 HD
ENDBRANCH   7   8
BRANCH   7  12
ATOM     12  C   UNL A   1      -2.731  -0.808   1.062  0.00  0.00    +0.003 C 
ATOM     13  H   UNL A   1      -2.915   0.134   1.588  0.00  0.00    +0.043 HD
ATOM     14  H   UNL A   1      -1.956  -1.352   1.615  0.00  0.00    +0.043 HD
BRANCH  12  15
ATOM     15  C   UNL A   1      -2.146  -0.446  -0.339  0.00  0.00    -0.015 C 
ATOM     16  H   UNL A   1      -1.270   0.198  -0.186  0.00  0.00    +0.033 HD
ATOM     17  H   UNL A   1      -1.801  -1.359  -0.840  0.00  0.00    +0.033 HD
BRANCH  15  18
ATOM     18  C   UNL A   1      -3.042   0.329  -1.305  0.00  0.00    -0.043 A 
ATOM     19  C   UNL A   1      -3.914   1.357  -0.909  0.00  0.00    -0.013 A 
ATOM     20  C   UNL A   1      -2.953   0.047  -2.675  0.00  0.00    -0.055 A 
ATOM     21  C   UNL A   1      -4.595   2.168  -1.849  0.00  0.00    +0.162 A 
ATOM     22  C   UNL A   1      -3.653   0.815  -3.611  0.00  0.00    -0.016 A 
ATOM     23  C   UNL A   1      -4.453   1.895  -3.217  0.00  0.00    +0.162 A 
ATOM     24  H   UNL A   1      -4.060   1.528   0.150  0.00  0.00    +0.066 HD
ATOM     25  H   UNL A   1      -2.322  -0.765  -3.033  0.00  0.00    +0.062 HD
ATOM     26  H   UNL A   1      -3.558   0.580  -4.670  0.00  0.00    +0.066 HD
BRANCH  23  27
ATOM     27  O   UNL A   1      -5.012   2.554  -4.284  0.00  0.00    -0.491 OA
BRANCH  27  28
ATOM     28  C   UNL A   1      -4.156   3.213  -5.210  0.00  0.00    +0.079 C 
ATOM     29  H   UNL A   1      -3.304   3.673  -4.703  0.00  0.00    +0.066 HD
ATOM     30  H   UNL A   1      -3.846   2.546  -6.022  0.00  0.00    +0.066 HD
ATOM     31  H   UNL A   1      -4.726   4.029  -5.665  0.00  0.00    +0.066 HD
ENDBRANCH  27  28
ENDBRANCH  23  27
BRANCH  21  32
ATOM     32  O   UNL A   1      -5.391   3.219  -1.487  0.00  0.00    -0.491 OA
BRANCH  32  33
ATOM     33  C   UNL A   1      -5.219   3.825  -0.216  0.00  0.00    +0.079 C 
ATOM     34  H   UNL A   1      -6.113   3.673   0.397  0.00  0.00    +0.066 HD
ATOM     35  H   UNL A   1      -4.317   3.481   0.302  0.00  0.00    +0.066 HD
ATOM     36  H   UNL A   1      -5.098   4.899  -0.378  0.00  0.00    +0.066 HD
ENDBRANCH  32  33
ENDBRANCH  21  32
ENDBRANCH  15  18
ENDBRANCH  12  15
ENDBRANCH   7  12
ENDBRANCH   4   7
ENDBRANCH   1   4
BRANCH   1  37
ATOM     37  C   UNL A   1      -6.984  -1.977   1.980  0.00  0.00    -0.029 C 
ATOM     38  H   UNL A   1      -6.521  -2.540   1.157  0.00  0.00    +0.028 HD
ATOM     39  H   UNL A   1      -7.511  -1.154   1.480  0.00  0.00    +0.028 HD
BRANCH  37  40
ATOM     40  C   UNL A   1      -8.057  -2.922   2.746  0.00  0.00    +0.085 C 
BRANCH  40  41
ATOM     41  C   UNL A   1      -9.318  -2.018   2.865  0.00  0.00    -0.024 A 
ATOM     42  C   UNL A   1     -10.021  -1.973   4.088  0.00  0.00    -0.012 A 
ATOM     43  C   UNL A   1      -9.720  -1.104   1.879  0.00  0.00    -0.053 A 
ATOM     44  C   UNL A   1     -11.028  -1.032   4.357  0.00  0.00    +0.162 A 
ATOM     45  C   UNL A   1     -10.778  -0.217   2.104  0.00  0.00    -0.016 A 
ATOM     46  C   UNL A   1     -11.443  -0.175   3.332  0.00  0.00    +0.162 A 
ATOM     47  H   UNL A   1      -9.744  -2.672   4.877  0.00  0.00    +0.066 HD
ATOM     48  H   UNL A   1      -9.210  -1.023   0.923  0.00  0.00    +0.062 HD
ATOM     49  H   UNL A   1     -11.070   0.476   1.315  0.00  0.00    +0.066 HD
BRANCH  44  50
ATOM     50  O   UNL A   1     -11.595  -0.918   5.600  0.00  0.00    -0.491 OA
BRANCH  50  51
ATOM     51  C   UNL A   1     -10.803  -0.222   6.560  0.00  0.00    +0.079 C 
ATOM     52  H   UNL A   1      -9.779  -0.600   6.493  0.00  0.00    +0.066 HD
ATOM     53  H   UNL A   1     -10.774   0.850   6.339  0.00  0.00    +0.066 HD
ATOM     54  H   UNL A   1     -11.156  -0.398   7.585  0.00  0.00    +0.066 HD
ENDBRANCH  50  51
ENDBRANCH  44  50
BRANCH  46  55
ATOM     55  O   UNL A   1     -12.392   0.811   3.406  0.00  0.00    -0.491 OA
BRANCH  55  56
ATOM     56  C   UNL A   1     -11.940   2.142   3.195  0.00  0.00    +0.079 C 
ATOM     57  H   UNL A   1     -11.524   2.588   4.105  0.00  0.00    +0.066 HD
ATOM     58  H   UNL A   1     -11.230   2.183   2.364  0.00  0.00    +0.066 HD
ATOM     59  H   UNL A   1     -12.810   2.740   2.902  0.00  0.00    +0.066 HD
ENDBRANCH  55  56
ENDBRANCH  46  55
ENDBRANCH  40  41
BRANCH  40  60
ATOM     60  C   UNL A   1      -8.267  -4.247   1.911  0.00  0.00    -0.024 C 
ATOM     61  H   UNL A   1      -8.937  -4.015   1.073  0.00  0.00    +0.031 HD
BRANCH  60  62
ATOM     62  C   UNL A   1      -8.928  -5.406   2.671  0.00  0.00    -0.061 C 
ATOM     63  H   UNL A   1      -9.260  -5.118   3.676  0.00  0.00    +0.023 HD
ATOM     64  H   UNL A   1      -9.825  -5.738   2.137  0.00  0.00    +0.023 HD
ATOM     65  H   UNL A   1      -8.259  -6.263   2.771  0.00  0.00    +0.023 HD
ENDBRANCH  60  62
BRANCH  60  66
ATOM     66  C   UNL A   1      -6.982  -4.791   1.260  0.00  0.00    -0.061 C 
ATOM     67  H   UNL A   1      -6.841  -5.854   1.474  0.00  0.00    +0.023 HD
ATOM     68  H   UNL A   1      -7.028  -4.673   0.170  0.00  0.00    +0.023 HD
ATOM     69  H   UNL A   1      -6.092  -4.247   1.587  0.00  0.00    +0.023 HD
ENDBRANCH  60  66
ENDBRANCH  40  60
BRANCH  40  71
ATOM     70  N   UNL A   1      -7.075  -3.450   5.295  0.00  0.00    -0.196 NA
ATOM     71  C   UNL A   1      -7.521  -3.211   4.139  0.00  0.00    +0.074 C 
ENDBRANCH  40  71
ENDBRANCH  37  40
ENDBRANCH   1  37
TORSDOF 21
ENDMDL
MODEL 4
REMARK VINA RESULT:    -6.242      1.320      2.072
REMARK INTER + INTRA:         -14.950
REMARK INTER:                 -13.166
REMARK INTRA:                  -1.784
REMARK UNBOUND:                -2.322
REMARK  Name = 2520
REMARK  21 active torsions:
REMARK  status: ('A' for Active; 'I' for Inactive)
REMARK    1  A    between atoms: O_1  and  C_19
REMARK    2  A    between atoms: O_1  and  C_28
REMARK    3  A    between atoms: O_2  and  C_23
REMARK    4  A    between atoms: O_2  and  C_31
REMARK    5  A    between atoms: O_3  and  C_27
REMARK    6  A    between atoms: O_3  and  C_32
REMARK    7  A    between atoms: O_4  and  C_30
REMARK    8  A    between atoms: O_4  and  C_33
REMARK    9  A    between atoms: N_5  and  C_12
REMARK   10  A    between atoms: N_5  and  C_18
REMARK   11  A    between atoms: N_5  and  C_20
REMARK   12  A    between atoms: C_7  and  C_8
REMARK   13  A    between atoms: C_7  and  C_9
REMARK   14  A    between atoms: C_7  and  C_11
REMARK   15  A    between atoms: C_7  and  C_15
REMARK   16  A    between atoms: C_8  and  C_13
REMARK   17  A    between atoms: C_8  and  C_14
REMARK   18  A    between atoms: C_9  and  C_10
REMARK   19  A    between atoms: C_10  and  C_12
REMARK   20  A    between atoms: C_18  and  C_22
REMARK   21  A    between atoms: C_22  and  C_24
REMARK                            x       y       z     vdW  Elec       q    Type
REMARK                         _______ _______ _______ _____ _____    ______ ____
ROOT
ATOM      1  C   UNL A   1      -5.378  -2.215   2.876  0.00  0.00    -0.038 C 
ATOM      2  H   UNL A   1      -4.633  -1.423   2.997  0.00  0.00    +0.028 HD
ATOM      3  H   UNL A   1      -5.431  -2.767   3.818  0.00  0.00    +0.028 HD
ENDROOT
BRANCH   1   4
ATOM      4  C   UNL A   1      -4.863  -3.186   1.783  0.00  0.00    -0.001 C 
ATOM      5  H   UNL A   1      -4.093  -3.854   2.190  0.00  0.00    +0.043 HD
ATOM      6  H   UNL A   1      -5.710  -3.826   1.504  0.00  0.00    +0.043 HD
BRANCH   4   7
ATOM      7  N   UNL A   1      -4.357  -2.488   0.563  0.00  0.00    -0.305 NA
BRANCH   7   8
ATOM      8  C   UNL A   1      -3.782  -3.463  -0.371  0.00  0.00    -0.013 C 
ATOM      9  H   UNL A   1      -3.216  -2.988  -1.180  0.00  0.00    +0.039 HD
ATOM     10  H   UNL A   1      -3.116  -4.159   0.152  0.00  0.00    +0.039 HD
ATOM     11  H   UNL A   1      -4.562  -4.094  -0.811  0.00  0.00    +0.039 HD
ENDBRANCH   7   8
BRANCH   7  12
ATOM     12  C   UNL A   1      -3.396  -1.398   0.900  0.00  0.00    +0.003 C 
ATOM     13  H   UNL A   1      -3.634  -1.060   1.913  0.00  0.00    +0.043 HD
ATOM     14  H   UNL A   1      -2.380  -1.810   0.917  0.00  0.00    +0.043 HD
BRANCH  12  15
ATOM     15  C   UNL A   1      -3.380  -0.133  -0.015  0.00  0.00    -0.015 C 
ATOM     16  H   UNL A   1      -2.332   0.158  -0.173  0.00  0.00    +0.033 HD
ATOM     17  H   UNL A   1      -3.803  -0.383  -0.995  0.00  0.00    +0.033 HD
BRANCH  15  18
ATOM     18  C   UNL A   1      -4.067   1.129   0.504  0.00  0.00    -0.043 A 
ATOM     19  C   UNL A   1      -4.032   2.368  -0.157  0.00  0.00    -0.013 A 
ATOM     20  C   UNL A   1      -4.831   1.042   1.676  0.00  0.00    -0.055 A 
ATOM     21  C   UNL A   1      -4.823   3.465   0.259  0.00  0.00    +0.162 A 
ATOM     22  C   UNL A   1      -5.585   2.133   2.121  0.00  0.00    -0.016 A 
ATOM     23  C   UNL A   1      -5.615   3.339   1.409  0.00  0.00    +0.162 A 
ATOM     24  H   UNL A   1      -3.378   2.475  -1.014  0.00  0.00    +0.066 HD
ATOM     25  H   UNL A   1      -4.863   0.117   2.249  0.00  0.00    +0.062 HD
ATOM     26  H   UNL A   1      -6.177   2.036   3.030  0.00  0.00    +0.066 HD
BRANCH  23  27
ATOM     27  O   UNL A   1      -6.454   4.266   1.978  0.00  0.00    -0.491 OA
BRANCH  27  28
ATOM     28  C   UNL A   1      -5.926   5.173   2.938  0.00  0.00    +0.079 C 
ATOM     29  H   UNL A   1      -5.850   4.707   3.924  0.00  0.00    +0.066 HD
ATOM     30  H   UNL A   1      -4.975   5.606   2.608  0.00  0.00    +0.066 HD
ATOM     31  H   UNL A   1      -6.637   6.000   3.038  0.00  0.00    +0.066 HD
ENDBRANCH  27  28
ENDBRANCH  23  27
BRANCH  21  32
ATOM     32  O   UNL A   1      -4.859   4.655  -0.412  0.00  0.00    -0.491 OA
BRANCH  32  33
ATOM     33  C   UNL A   1      -3.925   5.674  -0.087  0.00  0.00    +0.079 C 
ATOM     34  H   UNL A   1      -4.409   6.452   0.511  0.00  0.00    +0.066 HD
ATOM     35  H   UNL A   1      -3.029   5.287   0.412  0.00  0.00    +0.066 HD
ATOM     36  H   UNL A   1      -3.591   6.125  -1.026  0.00  0.00    +0.066 HD
ENDBRANCH  32  33
ENDBRANCH  21  32
ENDBRANCH  15  18
ENDBRANCH  12  15
ENDBRANCH   7  12
ENDBRANCH   4   7
ENDBRANCH   1   4
BRANCH   1  37
ATOM     37  C   UNL A   1      -6.773  -1.571   2.574  0.00  0.00    -0.029 C 
ATOM     38  H   UNL A   1      -6.829  -1.391   1.490  0.00  0.00    +0.028 HD
ATOM     39  H   UNL A   1      -6.806  -0.567   3.015  0.00  0.00    +0.028 HD
BRANCH  37  40
ATOM     40  C   UNL A   1      -8.073  -2.416   3.050  0.00  0.00    +0.085 C 
BRANCH  40  41
ATOM     41  C   UNL A   1      -9.183  -1.333   3.178  0.00  0.00    -0.024 A 
ATOM     42  C   UNL A   1      -9.964  -1.283   4.354  0.00  0.00    -0.012 A 
ATOM     43  C   UNL A   1      -9.360  -0.283   2.264  0.00  0.00    -0.053 A 
ATOM     44  C   UNL A   1     -10.830  -0.218   4.651  0.00  0.00    +0.162 A 
ATOM     45  C   UNL A   1     -10.281   0.741   2.509  0.00  0.00    -0.016 A 
ATOM     46  C   UNL A   1     -11.025   0.782   3.692  0.00  0.00    +0.162 A 
ATOM     47  H   UNL A   1      -9.861  -2.084   5.085  0.00  0.00    +0.066 HD
ATOM     48  H   UNL A   1      -8.770  -0.202   1.356  0.00  0.00    +0.062 HD
ATOM     49  H   UNL A   1     -10.399   1.538   1.777  0.00  0.00    +0.066 HD
BRANCH  44  50
ATOM     50  O   UNL A   1     -11.466  -0.123   5.860  0.00  0.00    -0.491 OA
BRANCH  50  51
ATOM     51  C   UNL A   1     -11.146  -1.155   6.791  0.00  0.00    +0.079 C 
ATOM     52  H   UNL A   1     -11.999  -1.837   6.848  0.00  0.00    +0.066 HD
ATOM     53  H   UNL A   1     -10.282  -1.735   6.448  0.00  0.00    +0.066 HD
ATOM     54  H   UNL A   1     -10.971  -0.756   7.799  0.00  0.00    +0.066 HD
ENDBRANCH  50  51
ENDBRANCH  44  50
BRANCH  46  55
ATOM     55  O   UNL A   1     -11.812   1.898   3.803  0.00  0.00    -0.491 OA
BRANCH  55  56
ATOM     56  C   UNL A   1     -11.183   3.146   3.537  0.00  0.00    +0.079 C 
ATOM     57  H   UNL A   1     -10.120   3.139   3.802  0.00  0.00    +0.066 HD
ATOM     58  H   UNL A   1     -11.338   3.442   2.496  0.00  0.00    +0.066 HD
ATOM     59  H   UNL A   1     -11.675   3.899   4.160  0.00  0.00    +0.066 HD
ENDBRANCH  55  56
ENDBRANCH  46  55
ENDBRANCH  40  41
BRANCH  40  60
ATOM     60  C   UNL A   1      -8.370  -3.548   1.988  0.00  0.00    -0.024 C 
ATOM     61  H   UNL A   1      -7.409  -3.890   1.582  0.00  0.00    +0.031 HD
BRANCH  60  62
ATOM     62  C   UNL A   1      -9.209  -3.111   0.779  0.00  0.00    -0.061 C 
ATOM     63  H   UNL A   1     -10.232  -3.504   0.810  0.00  0.00    +0.023 HD
ATOM     64  H   UNL A   1      -9.303  -2.019   0.765  0.00  0.00    +0.023 HD
ATOM     65  H   UNL A   1      -8.757  -3.422  -0.166  0.00  0.00    +0.023 HD
ENDBRANCH  60  62
BRANCH  60  66
ATOM     66  C   UNL A   1      -9.028  -4.808   2.579  0.00  0.00    -0.061 C 
ATOM     67  H   UNL A   1     -10.102  -4.835   2.376  0.00  0.00    +0.023 HD
ATOM     68  H   UNL A   1      -8.582  -5.711   2.143  0.00  0.00    +0.023 HD
ATOM     69  H   UNL A   1      -8.875  -4.885   3.659  0.00  0.00    +0.023 HD
ENDBRANCH  60  66
ENDBRANCH  40  60
BRANCH  40  71
ATOM     70  N   UNL A   1      -7.538  -3.472   5.567  0.00  0.00    -0.196 NA
ATOM     71  C   UNL A   1      -7.781  -2.993   4.425  0.00  0.00    +0.074 C 
ENDBRANCH  40  71
ENDBRANCH  37  40
ENDBRANCH   1  37
TORSDOF 21
ENDMDL
MODEL 5
REMARK VINA RESULT:    -6.226      2.985      5.268
REMARK INTER + INTRA:         -14.918
REMARK INTER:                 -12.925
REMARK INTRA:                  -1.993
REMARK UNBOUND:                -2.322
REMARK  Name = 2520
REMARK  21 active torsions:
REMARK  status: ('A' for Active; 'I' for Inactive)
REMARK    1  A    between atoms: O_1  and  C_19
REMARK    2  A    between atoms: O_1  and  C_28
REMARK    3  A    between atoms: O_2  and  C_23
REMARK    4  A    between atoms: O_2  and  C_31
REMARK    5  A    between atoms: O_3  and  C_27
REMARK    6  A    between atoms: O_3  and  C_32
REMARK    7  A    between atoms: O_4  and  C_30
REMARK    8  A    between atoms: O_4  and  C_33
REMARK    9  A    between atoms: N_5  and  C_12
REMARK   10  A    between atoms: N_5  and  C_18
REMARK   11  A    between atoms: N_5  and  C_20
REMARK   12  A    between atoms: C_7  and  C_8
REMARK   13  A    between atoms: C_7  and  C_9
REMARK   14  A    between atoms: C_7  and  C_11
REMARK   15  A    between atoms: C_7  and  C_15
REMARK   16  A    between atoms: C_8  and  C_13
REMARK   17  A    between atoms: C_8  and  C_14
REMARK   18  A    between atoms: C_9  and  C_10
REMARK   19  A    between atoms: C_10  and  C_12
REMARK   20  A    between atoms: C_18  and  C_22
REMARK   21  A    between atoms: C_22  and  C_24
REMARK                            x       y       z     vdW  Elec       q    Type
REMARK                         _______ _______ _______ _____ _____    ______ ____
ROOT
ATOM      1  C   UNL A   1      -7.113  -0.670   2.790  0.00  0.00    -0.038 C 
ATOM      2  H   UNL A   1      -7.383  -1.224   1.886  0.00  0.00    +0.028 HD
ATOM      3  H   UNL A   1      -6.307   0.021   2.527  0.00  0.00    +0.028 HD
ENDROOT
BRANCH   1   4
ATOM      4  C   UNL A   1      -6.553  -1.687   3.818  0.00  0.00    -0.001 C 
ATOM      5  H   UNL A   1      -5.471  -1.551   3.947  0.00  0.00    +0.043 HD
ATOM      6  H   UNL A   1      -7.012  -1.443   4.785  0.00  0.00    +0.043 HD
BRANCH   4   7
ATOM      7  N   UNL A   1      -6.865  -3.107   3.475  0.00  0.00    -0.305 NA
BRANCH   7   8
ATOM      8  C   UNL A   1      -7.311  -3.826   4.674  0.00  0.00    -0.013 C 
ATOM      9  H   UNL A   1      -7.423  -3.167   5.542  0.00  0.00    +0.039 HD
ATOM     10  H   UNL A   1      -8.270  -4.325   4.496  0.00  0.00    +0.039 HD
ATOM     11  H   UNL A   1      -6.615  -4.632   4.931  0.00  0.00    +0.039 HD
ENDBRANCH   7   8
BRANCH   7  12
ATOM     12  C   UNL A   1      -5.718  -3.786   2.806  0.00  0.00    +0.003 C 
ATOM     13  H   UNL A   1      -4.801  -3.352   3.219  0.00  0.00    +0.043 HD
ATOM     14  H   UNL A   1      -5.729  -4.850   3.069  0.00  0.00    +0.043 HD
BRANCH  12  15
ATOM     15  C   UNL A   1      -5.616  -3.683   1.252  0.00  0.00    -0.015 C 
ATOM     16  H   UNL A   1      -5.544  -4.702   0.848  0.00  0.00    +0.033 HD
ATOM     17  H   UNL A   1      -6.535  -3.236   0.853  0.00  0.00    +0.033 HD
BRANCH  15  18
ATOM     18  C   UNL A   1      -4.418  -2.939   0.665  0.00  0.00    -0.043 A 
ATOM     19  C   UNL A   1      -3.562  -3.478  -0.310  0.00  0.00    -0.013 A 
ATOM     20  C   UNL A   1      -4.185  -1.617   1.071  0.00  0.00    -0.055 A 
ATOM     21  C   UNL A   1      -2.572  -2.699  -0.956  0.00  0.00    +0.162 A 
ATOM     22  C   UNL A   1      -3.183  -0.850   0.469  0.00  0.00    -0.016 A 
ATOM     23  C   UNL A   1      -2.389  -1.366  -0.564  0.00  0.00    +0.162 A 
ATOM     24  H   UNL A   1      -3.674  -4.524  -0.570  0.00  0.00    +0.066 HD
ATOM     25  H   UNL A   1      -4.794  -1.162   1.850  0.00  0.00    +0.062 HD
ATOM     26  H   UNL A   1      -3.030   0.178   0.797  0.00  0.00    +0.066 HD
BRANCH  23  27
ATOM     27  O   UNL A   1      -1.502  -0.441  -1.058  0.00  0.00    -0.491 OA
BRANCH  27  28
ATOM     28  C   UNL A   1      -1.975   0.554  -1.958  0.00  0.00    +0.079 C 
ATOM     29  H   UNL A   1      -3.016   0.813  -1.750  0.00  0.00    +0.066 HD
ATOM     30  H   UNL A   1      -1.321   1.434  -1.969  0.00  0.00    +0.066 HD
ATOM     31  H   UNL A   1      -1.955   0.126  -2.966  0.00  0.00    +0.066 HD
ENDBRANCH  27  28
ENDBRANCH  23  27
BRANCH  21  32
ATOM     32  O   UNL A   1      -1.778  -3.184  -1.956  0.00  0.00    -0.491 OA
BRANCH  32  33
ATOM     33  C   UNL A   1      -2.168  -3.010  -3.310  0.00  0.00    +0.079 C 
ATOM     34  H   UNL A   1      -2.332  -3.982  -3.783  0.00  0.00    +0.066 HD
ATOM     35  H   UNL A   1      -3.042  -2.359  -3.421  0.00  0.00    +0.066 HD
ATOM     36  H   UNL A   1      -1.341  -2.515  -3.828  0.00  0.00    +0.066 HD
ENDBRANCH  32  33
ENDBRANCH  21  32
ENDBRANCH  15  18
ENDBRANCH  12  15
ENDBRANCH   7  12
ENDBRANCH   4   7
ENDBRANCH   1   4
BRANCH   1  37
ATOM     37  C   UNL A   1      -8.354   0.145   3.286  0.00  0.00    -0.029 C 
ATOM     38  H   UNL A   1      -8.238   1.179   2.929  0.00  0.00    +0.028 HD
ATOM     39  H   UNL A   1      -8.311   0.233   4.378  0.00  0.00    +0.028 HD
BRANCH  37  40
ATOM     40  C   UNL A   1      -9.808  -0.421   2.843  0.00  0.00    +0.085 C 
BRANCH  40  41
ATOM     41  C   UNL A   1     -10.365  -1.052   4.151  0.00  0.00    -0.024 A 
ATOM     42  C   UNL A   1     -10.937  -2.342   4.105  0.00  0.00    -0.012 A 
ATOM     43  C   UNL A   1     -10.193  -0.490   5.426  0.00  0.00    -0.053 A 
ATOM     44  C   UNL A   1     -11.263  -3.076   5.257  0.00  0.00    +0.162 A 
ATOM     45  C   UNL A   1     -10.590  -1.176   6.578  0.00  0.00    -0.016 A 
ATOM     46  C   UNL A   1     -11.131  -2.463   6.508  0.00  0.00    +0.162 A 
ATOM     47  H   UNL A   1     -11.095  -2.810   3.134  0.00  0.00    +0.066 HD
ATOM     48  H   UNL A   1      -9.715   0.474   5.572  0.00  0.00    +0.062 HD
ATOM     49  H   UNL A   1     -10.448  -0.710   7.552  0.00  0.00    +0.066 HD
BRANCH  44  50
ATOM     50  O   UNL A   1     -11.683  -4.378   5.187  0.00  0.00    -0.491 OA
BRANCH  50  51
ATOM     51  C   UNL A   1     -13.097  -4.557   5.209  0.00  0.00    +0.079 C 
ATOM     52  H   UNL A   1     -13.564  -3.607   4.937  0.00  0.00    +0.066 HD
ATOM     53  H   UNL A   1     -13.407  -5.302   4.468  0.00  0.00    +0.066 HD
ATOM     54  H   UNL A   1     -13.459  -4.831   6.210  0.00  0.00    +0.066 HD
ENDBRANCH  50  51
ENDBRANCH  44  50
BRANCH  46  55
ATOM     55  O   UNL A   1     -11.384  -3.017   7.735  0.00  0.00    -0.491 OA
BRANCH  55  56
ATOM     56  C   UNL A   1     -12.465  -2.459   8.471  0.00  0.00    +0.079 C 
ATOM     57  H   UNL A   1     -12.358  -1.378   8.609  0.00  0.00    +0.066 HD
ATOM     58  H   UNL A   1     -13.422  -2.714   8.007  0.00  0.00    +0.066 HD
ATOM     59  H   UNL A   1     -12.458  -2.921   9.464  0.00  0.00    +0.066 HD
ENDBRANCH  55  56
ENDBRANCH  46  55
ENDBRANCH  40  41
BRANCH  40  60
ATOM     60  C   UNL A   1     -10.670   0.769   2.261  0.00  0.00    -0.024 C 
ATOM     61  H   UNL A   1     -10.528   0.787   1.172  0.00  0.00    +0.031 HD
BRANCH  60  62
ATOM     62  C   UNL A   1     -10.282   2.168   2.761  0.00  0.00    -0.061 C 
ATOM     63  H   UNL A   1     -10.265   2.236   3.855  0.00  0.00    +0.023 HD
ATOM     64  H   UNL A   1      -9.269   2.416   2.425  0.00  0.00    +0.023 HD
ATOM     65  H   UNL A   1     -10.959   2.938   2.386  0.00  0.00    +0.023 HD
ENDBRANCH  60  62
BRANCH  60  66
ATOM     66  C   UNL A   1     -12.187   0.606   2.466  0.00  0.00    -0.061 C 
ATOM     67  H   UNL A   1     -12.609   1.443   3.030  0.00  0.00    +0.023 HD
ATOM     68  H   UNL A   1     -12.700   0.563   1.497  0.00  0.00    +0.023 HD
ATOM     69  H   UNL A   1     -12.436  -0.324   2.983  0.00  0.00    +0.023 HD
ENDBRANCH  60  66
ENDBRANCH  40  60
BRANCH  40  71
ATOM     70  N   UNL A   1      -9.414  -2.431   0.961  0.00  0.00    -0.196 NA
ATOM     71  C   UNL A   1      -9.593  -1.519   1.815  0.00  0.00    +0.074 C 
ENDBRANCH  40  71
ENDBRANCH  37  40
ENDBRANCH   1  37
TORSDOF 21
ENDMDL
MODEL 6
REMARK VINA RESULT:    -6.203      2.492      4.830
REMARK INTER + INTRA:         -14.872
REMARK INTER:                 -13.258
REMARK INTRA:                  -1.614
REMARK UNBOUND:                -2.322
REMARK  Name = 2520
REMARK  21 active torsions:
REMARK  status: ('A' for Active; 'I' for Inactive)
REMARK    1  A    between atoms: O_1  and  C_19
REMARK    2  A    between atoms: O_1  and  C_28
REMARK    3  A    between atoms: O_2  and  C_23
REMARK    4  A    between atoms: O_2  and  C_31
REMARK    5  A    between atoms: O_3  and  C_27
REMARK    6  A    between atoms: O_3  and  C_32
REMARK    7  A    between atoms: O_4  and  C_30
REMARK    8  A    between atoms: O_4  and  C_33
REMARK    9  A    between atoms: N_5  and  C_12
REMARK   10  A    between atoms: N_5  and  C_18
REMARK   11  A    between atoms: N_5  and  C_20
REMARK   12  A    between atoms: C_7  and  C_8
REMARK   13  A    between atoms: C_7  and  C_9
REMARK   14  A    between atoms: C_7  and  C_11
REMARK   15  A    between atoms: C_7  and  C_15
REMARK   16  A    between atoms: C_8  and  C_13
REMARK   17  A    between atoms: C_8  and  C_14
REMARK   18  A    between atoms: C_9  and  C_10
REMARK   19  A    between atoms: C_10  and  C_12
REMARK   20  A    between atoms: C_18  and  C_22
REMARK   21  A    between atoms: C_22  and  C_24
REMARK                            x       y       z     vdW  Elec       q    Type
REMARK                         _______ _______ _______ _____ _____    ______ ____
ROOT
ATOM      1  C   UNL A   1      -8.090  -0.639   3.027  0.00  0.00    -0.038 C 
ATOM      2  H   UNL A   1      -7.307   0.043   2.683  0.00  0.00    +0.028 HD
ATOM      3  H   UNL A   1      -8.241  -0.459   4.095  0.00  0.00    +0.028 HD
ENDROOT
BRANCH   1   4
ATOM      4  C   UNL A   1      -7.562  -2.087   2.858  0.00  0.00    -0.001 C 
ATOM      5  H   UNL A   1      -7.598  -2.627   3.815  0.00  0.00    +0.043 HD
ATOM      6  H   UNL A   1      -8.263  -2.602   2.188  0.00  0.00    +0.043 HD
BRANCH   4   7
ATOM      7  N   UNL A   1      -6.190  -2.153   2.273  0.00  0.00    -0.305 NA
BRANCH   7   8
ATOM      8  C   UNL A   1      -6.021  -3.406   1.529  0.00  0.00    -0.013 C 
ATOM      9  H   UNL A   1      -6.119  -3.269   0.446  0.00  0.00    +0.039 HD
ATOM     10  H   UNL A   1      -5.040  -3.852   1.731  0.00  0.00    +0.039 HD
ATOM     11  H   UNL A   1      -6.747  -4.159   1.856  0.00  0.00    +0.039 HD
ENDBRANCH   7   8
BRANCH   7  12
ATOM     12  C   UNL A   1      -5.131  -1.966   3.307  0.00  0.00    +0.003 C 
ATOM     13  H   UNL A   1      -5.638  -1.753   4.253  0.00  0.00    +0.043 HD
ATOM     14  H   UNL A   1      -4.581  -2.906   3.429  0.00  0.00    +0.043 HD
BRANCH  12  15
ATOM     15  C   UNL A   1      -4.084  -0.830   3.080  0.00  0.00    -0.015 C 
ATOM     16  H   UNL A   1      -4.454   0.077   3.578  0.00  0.00    +0.033 HD
ATOM     17  H   UNL A   1      -3.136  -1.104   3.558  0.00  0.00    +0.033 HD
BRANCH  15  18
ATOM     18  C   UNL A   1      -3.799  -0.403   1.641  0.00  0.00    -0.043 A 
ATOM     19  C   UNL A   1      -4.378   0.722   1.029  0.00  0.00    -0.013 A 
ATOM     20  C   UNL A   1      -2.860  -1.133   0.899  0.00  0.00    -0.055 A 
ATOM     21  C   UNL A   1      -3.958   1.186  -0.241  0.00  0.00    +0.162 A 
ATOM     22  C   UNL A   1      -2.467  -0.707  -0.374  0.00  0.00    -0.016 A 
ATOM     23  C   UNL A   1      -2.984   0.464  -0.944  0.00  0.00    +0.162 A 
ATOM     24  H   UNL A   1      -5.167   1.244   1.555  0.00  0.00    +0.066 HD
ATOM     25  H   UNL A   1      -2.409  -2.034   1.310  0.00  0.00    +0.062 HD
ATOM     26  H   UNL A   1      -1.729  -1.288  -0.926  0.00  0.00    +0.066 HD
BRANCH  23  27
ATOM     27  O   UNL A   1      -2.434   0.738  -2.172  0.00  0.00    -0.491 OA
BRANCH  27  28
ATOM     28  C   UNL A   1      -3.095   0.270  -3.342  0.00  0.00    +0.079 C 
ATOM     29  H   UNL A   1      -3.426  -0.764  -3.222  0.00  0.00    +0.066 HD
ATOM     30  H   UNL A   1      -3.912   0.937  -3.640  0.00  0.00    +0.066 HD
ATOM     31  H   UNL A   1      -2.365   0.272  -4.159  0.00  0.00    +0.066 HD
ENDBRANCH  27  28
ENDBRANCH  23  27
BRANCH  21  32
ATOM     32  O   UNL A   1      -4.456   2.318  -0.822  0.00  0.00    -0.491 OA
BRANCH  32  33
ATOM     33  C   UNL A   1      -3.881   3.578  -0.512  0.00  0.00    +0.079 C 
ATOM     34  H   UNL A   1      -2.789   3.509  -0.533  0.00  0.00    +0.066 HD
ATOM     35  H   UNL A   1      -4.242   4.382  -1.163  0.00  0.00    +0.066 HD
ATOM     36  H   UNL A   1      -4.186   3.837   0.505  0.00  0.00    +0.066 HD
ENDBRANCH  32  33
ENDBRANCH  21  32
ENDBRANCH  15  18
ENDBRANCH  12  15
ENDBRANCH   7  12
ENDBRANCH   4   7
ENDBRANCH   1   4
BRANCH   1  37
ATOM     37  C   UNL A   1      -9.417  -0.333   2.256  0.00  0.00    -0.029 C 
ATOM     38  H   UNL A   1      -9.855  -1.294   1.951  0.00  0.00    +0.028 HD
ATOM     39  H   UNL A   1      -9.174   0.165   1.309  0.00  0.00    +0.028 HD
BRANCH  37  40
ATOM     40  C   UNL A   1     -10.528   0.537   3.057  0.00  0.00    +0.085 C 
BRANCH  40  41
ATOM     41  C   UNL A   1     -10.806  -0.315   4.330  0.00  0.00    -0.024 A 
ATOM     42  C   UNL A   1     -11.229  -1.654   4.184  0.00  0.00    -0.012 A 
ATOM     43  C   UNL A   1     -10.507   0.108   5.635  0.00  0.00    -0.053 A 
ATOM     44  C   UNL A   1     -11.291  -2.557   5.258  0.00  0.00    +0.162 A 
ATOM     45  C   UNL A   1     -10.646  -0.758   6.724  0.00  0.00    -0.016 A 
ATOM     46  C   UNL A   1     -11.042  -2.087   6.552  0.00  0.00    +0.162 A 
ATOM     47  H   UNL A   1     -11.477  -2.019   3.188  0.00  0.00    +0.066 HD
ATOM     48  H   UNL A   1     -10.125   1.102   5.846  0.00  0.00    +0.062 HD
ATOM     49  H   UNL A   1     -10.412  -0.397   7.725  0.00  0.00    +0.066 HD
BRANCH  44  50
ATOM     50  O   UNL A   1     -11.566  -3.886   5.067  0.00  0.00    -0.491 OA
BRANCH  50  51
ATOM     51  C   UNL A   1     -12.935  -4.248   5.234  0.00  0.00    +0.079 C 
ATOM     52  H   UNL A   1     -13.385  -3.551   5.946  0.00  0.00    +0.066 HD
ATOM     53  H   UNL A   1     -13.482  -4.153   4.290  0.00  0.00    +0.066 HD
ATOM     54  H   UNL A   1     -13.043  -5.261   5.646  0.00  0.00    +0.066 HD
ENDBRANCH  50  51
ENDBRANCH  44  50
BRANCH  46  55
ATOM     55  O   UNL A   1     -11.042  -2.812   7.714  0.00  0.00    -0.491 OA
BRANCH  55  56
ATOM     56  C   UNL A   1     -12.223  -2.745   8.503  0.00  0.00    +0.079 C 
ATOM     57  H   UNL A   1     -12.736  -1.782   8.399  0.00  0.00    +0.066 HD
ATOM     58  H   UNL A   1     -12.888  -3.583   8.277  0.00  0.00    +0.066 HD
ATOM     59  H   UNL A   1     -11.922  -2.848   9.550  0.00  0.00    +0.066 HD
ENDBRANCH  55  56
ENDBRANCH  46  55
ENDBRANCH  40  41
BRANCH  40  60
ATOM     60  C   UNL A   1      -9.950   1.980   3.338  0.00  0.00    -0.024 C 
ATOM     61  H   UNL A   1      -9.385   1.940   4.278  0.00  0.00    +0.031 HD
BRANCH  60  62
ATOM     62  C   UNL A   1     -11.001   3.084   3.524  0.00  0.00    -0.061 C 
ATOM     63  H   UNL A   1     -11.866   2.960   2.863  0.00  0.00    +0.023 HD
ATOM     64  H   UNL A   1     -11.393   3.057   4.547  0.00  0.00    +0.023 HD
ATOM     65  H   UNL A   1     -10.584   4.078   3.349  0.00  0.00    +0.023 HD
ENDBRANCH  60  62
BRANCH  60  66
ATOM     66  C   UNL A   1      -8.942   2.470   2.283  0.00  0.00    -0.061 C 
ATOM     67  H   UNL A   1      -9.367   2.441   1.275  0.00  0.00    +0.023 HD
ATOM     68  H   UNL A   1      -8.647   3.506   2.491  0.00  0.00    +0.023 HD
ATOM     69  H   UNL A   1      -8.019   1.884   2.290  0.00  0.00    +0.023 HD
ENDBRANCH  60  66
ENDBRANCH  40  60
BRANCH  40  71
ATOM     70  N   UNL A   1     -12.834   0.629   1.505  0.00  0.00    -0.196 NA
ATOM     71  C   UNL A   1     -11.788   0.587   2.209  0.00  0.00    +0.074 C 
ENDBRANCH  40  71
ENDBRANCH  37  40
ENDBRANCH   1  37
TORSDOF 21
ENDMDL
MODEL 7
REMARK VINA RESULT:    -6.187      2.298      3.841
REMARK INTER + INTRA:         -14.838
REMARK INTER:                 -13.006
REMARK INTRA:                  -1.832
REMARK UNBOUND:                -2.322
REMARK  Name = 2520
REMARK  21 active torsions:
REMARK  status: ('A' for Active; 'I' for Inactive)
REMARK    1  A    between atoms: O_1  and  C_19
REMARK    2  A    between atoms: O_1  and  C_28
REMARK    3  A    between atoms: O_2  and  C_23
REMARK    4  A    between atoms: O_2  and  C_31
REMARK    5  A    between atoms: O_3  and  C_27
REMARK    6  A    between atoms: O_3  and  C_32
REMARK    7  A    between atoms: O_4  and  C_30
REMARK    8  A    between atoms: O_4  and  C_33
REMARK    9  A    between atoms: N_5  and  C_12
REMARK   10  A    between atoms: N_5  and  C_18
REMARK   11  A    between atoms: N_5  and  C_20
REMARK   12  A    between atoms: C_7  and  C_8
REMARK   13  A    between atoms: C_7  and  C_9
REMARK   14  A    between atoms: C_7  and  C_11
REMARK   15  A    between atoms: C_7  and  C_15
REMARK   16  A    between atoms: C_8  and  C_13
REMARK   17  A    between atoms: C_8  and  C_14
REMARK   18  A    between atoms: C_9  and  C_10
REMARK   19  A    between atoms: C_10  and  C_12
REMARK   20  A    between atoms: C_18  and  C_22
REMARK   21  A    between atoms: C_22  and  C_24
REMARK                            x       y       z     vdW  Elec       q    Type
REMARK                         _______ _______ _______ _____ _____    ______ ____
ROOT
ATOM      1  C   UNL A   1      -6.795  -3.483   4.574  0.00  0.00    -0.038 C 
ATOM      2  H   UNL A   1      -6.452  -3.785   5.568  0.00  0.00    +0.028 HD
ATOM      3  H   UNL A   1      -7.251  -4.357   4.101  0.00  0.00    +0.028 HD
ENDROOT
BRANCH   1   4
ATOM      4  C   UNL A   1      -5.548  -3.087   3.744  0.00  0.00    -0.001 C 
ATOM      5  H   UNL A   1      -5.006  -2.263   4.227  0.00  0.00    +0.043 HD
ATOM      6  H   UNL A   1      -4.871  -3.952   3.758  0.00  0.00    +0.043 HD
BRANCH   4   7
ATOM      7  N   UNL A   1      -5.867  -2.742   2.326  0.00  0.00    -0.305 NA
BRANCH   7   8
ATOM      8  C   UNL A   1      -5.934  -3.962   1.515  0.00  0.00    -0.013 C 
ATOM      9  H   UNL A   1      -4.958  -4.254   1.112  0.00  0.00    +0.039 HD
ATOM     10  H   UNL A   1      -6.327  -4.801   2.103  0.00  0.00    +0.039 HD
ATOM     11  H   UNL A   1      -6.638  -3.845   0.684  0.00  0.00    +0.039 HD
ENDBRANCH   7   8
BRANCH   7  12
ATOM     12  C   UNL A   1      -4.909  -1.745   1.763  0.00  0.00    +0.003 C 
ATOM     13  H   UNL A   1      -3.934  -2.239   1.694  0.00  0.00    +0.043 HD
ATOM     14  H   UNL A   1      -5.222  -1.484   0.746  0.00  0.00    +0.043 HD
BRANCH  12  15
ATOM     15  C   UNL A   1      -4.697  -0.415   2.551  0.00  0.00    -0.015 C 
ATOM     16  H   UNL A   1      -5.411  -0.396   3.386  0.00  0.00    +0.033 HD
ATOM     17  H   UNL A   1      -3.688  -0.400   2.982  0.00  0.00    +0.033 HD
BRANCH  15  18
ATOM     18  C   UNL A   1      -4.926   0.898   1.805  0.00  0.00    -0.043 A 
ATOM     19  C   UNL A   1      -5.765   1.926   2.268  0.00  0.00    -0.013 A 
ATOM     20  C   UNL A   1      -4.217   1.127   0.617  0.00  0.00    -0.055 A 
ATOM     21  C   UNL A   1      -5.816   3.194   1.641  0.00  0.00    +0.162 A 
ATOM     22  C   UNL A   1      -4.291   2.363  -0.034  0.00  0.00    -0.016 A 
ATOM     23  C   UNL A   1      -5.061   3.414   0.480  0.00  0.00    +0.162 A 
ATOM     24  H   UNL A   1      -6.384   1.732   3.135  0.00  0.00    +0.066 HD
ATOM     25  H   UNL A   1      -3.582   0.351   0.193  0.00  0.00    +0.062 HD
ATOM     26  H   UNL A   1      -3.722   2.517  -0.950  0.00  0.00    +0.066 HD
BRANCH  23  27
ATOM     27  O   UNL A   1      -4.960   4.558  -0.273  0.00  0.00    -0.491 OA
BRANCH  27  28
ATOM     28  C   UNL A   1      -3.823   5.395  -0.104  0.00  0.00    +0.079 C 
ATOM     29  H   UNL A   1      -3.873   5.945   0.840  0.00  0.00    +0.066 HD
ATOM     30  H   UNL A   1      -2.887   4.834  -0.209  0.00  0.00    +0.066 HD
ATOM     31  H   UNL A   1      -3.840   6.143  -0.903  0.00  0.00    +0.066 HD
ENDBRANCH  27  28
ENDBRANCH  23  27
BRANCH  21  32
ATOM     32  O   UNL A   1      -6.569   4.230   2.117  0.00  0.00    -0.491 OA
BRANCH  32  33
ATOM     33  C   UNL A   1      -5.969   5.210   2.952  0.00  0.00    +0.079 C 
ATOM     34  H   UNL A   1      -6.735   5.876   3.360  0.00  0.00    +0.066 HD
ATOM     35  H   UNL A   1      -5.354   4.774   3.746  0.00  0.00    +0.066 HD
ATOM     36  H   UNL A   1      -5.298   5.806   2.327  0.00  0.00    +0.066 HD
ENDBRANCH  32  33
ENDBRANCH  21  32
ENDBRANCH  15  18
ENDBRANCH  12  15
ENDBRANCH   7  12
ENDBRANCH   4   7
ENDBRANCH   1   4
BRANCH   1  37
ATOM     37  C   UNL A   1      -7.869  -2.353   4.721  0.00  0.00    -0.029 C 
ATOM     38  H   UNL A   1      -7.429  -1.422   4.334  0.00  0.00    +0.028 HD
ATOM     39  H   UNL A   1      -8.032  -2.150   5.786  0.00  0.00    +0.028 HD
BRANCH  37  40
ATOM     40  C   UNL A   1      -9.295  -2.619   3.995  0.00  0.00    +0.085 C 
BRANCH  40  41
ATOM     41  C   UNL A   1     -10.282  -2.786   5.186  0.00  0.00    -0.024 A 
ATOM     42  C   UNL A   1     -11.456  -3.550   5.006  0.00  0.00    -0.012 A 
ATOM     43  C   UNL A   1     -10.008  -2.360   6.495  0.00  0.00    -0.053 A 
ATOM     44  C   UNL A   1     -12.288  -3.935   6.071  0.00  0.00    +0.162 A 
ATOM     45  C   UNL A   1     -10.872  -2.666   7.551  0.00  0.00    -0.016 A 
ATOM     46  C   UNL A   1     -12.016  -3.446   7.352  0.00  0.00    +0.162 A 
ATOM     47  H   UNL A   1     -11.709  -3.893   4.004  0.00  0.00    +0.066 HD
ATOM     48  H   UNL A   1      -9.105  -1.812   6.746  0.00  0.00    +0.062 HD
ATOM     49  H   UNL A   1     -10.634  -2.315   8.554  0.00  0.00    +0.066 HD
BRANCH  44  50
ATOM     50  O   UNL A   1     -13.340  -4.794   5.888  0.00  0.00    -0.491 OA
BRANCH  50  51
ATOM     51  C   UNL A   1     -13.021  -5.996   5.189  0.00  0.00    +0.079 C 
ATOM     52  H   UNL A   1     -12.137  -5.807   4.576  0.00  0.00    +0.066 HD
ATOM     53  H   UNL A   1     -12.770  -6.800   5.890  0.00  0.00    +0.066 HD
ATOM     54  H   UNL A   1     -13.833  -6.305   4.517  0.00  0.00    +0.066 HD
ENDBRANCH  50  51
ENDBRANCH  44  50
BRANCH  46  55
ATOM     55  O   UNL A   1     -12.698  -3.718   8.508  0.00  0.00    -0.491 OA
BRANCH  55  56
ATOM     56  C   UNL A   1     -13.442  -2.646   9.073  0.00  0.00    +0.079 C 
ATOM     57  H   UNL A   1     -12.848  -1.728   9.156  0.00  0.00    +0.066 HD
ATOM     58  H   UNL A   1     -14.366  -2.479   8.514  0.00  0.00    +0.066 HD
ATOM     59  H   UNL A   1     -13.730  -2.945  10.085  0.00  0.00    +0.066 HD
ENDBRANCH  55  56
ENDBRANCH  46  55
ENDBRANCH  40  41
BRANCH  40  60
ATOM     60  C   UNL A   1      -9.617  -1.411   3.030  0.00  0.00    -0.024 C 
ATOM     61  H   UNL A   1      -9.786  -1.817   2.024  0.00  0.00    +0.031 HD
BRANCH  60  62
ATOM     62  C   UNL A   1      -8.497  -0.370   2.882  0.00  0.00    -0.061 C 
ATOM     63  H   UNL A   1      -8.874   0.659   2.880  0.00  0.00    +0.023 HD
ATOM     64  H   UNL A   1      -7.809  -0.441   3.732  0.00  0.00    +0.023 HD
ATOM     65  H   UNL A   1      -7.919  -0.520   1.968  0.00  0.00    +0.023 HD
ENDBRANCH  60  62
BRANCH  60  66
ATOM     66  C   UNL A   1     -10.912  -0.653   3.381  0.00  0.00    -0.061 C 
ATOM     67  H   UNL A   1     -11.007   0.270   2.802  0.00  0.00    +0.023 HD
ATOM     68  H   UNL A   1     -11.788  -1.276   3.164  0.00  0.00    +0.023 HD
ATOM     69  H   UNL A   1     -10.970  -0.407   4.444  0.00  0.00    +0.023 HD
ENDBRANCH  60  66
ENDBRANCH  40  60
BRANCH  40  71
ATOM     70  N   UNL A   1      -9.122  -5.028   2.615  0.00  0.00    -0.196 NA
ATOM     71  C   UNL A   1      -9.201  -3.935   3.241  0.00  0.00    +0.074 C 
ENDBRANCH  40  71
ENDBRANCH  37  40
ENDBRANCH   1  37
TORSDOF 21
ENDMDL
MODEL 8
REMARK VINA RESULT:    -6.149      2.062      4.286
REMARK INTER + INTRA:         -14.763
REMARK INTER:                 -12.684
REMARK INTRA:                  -2.079
REMARK UNBOUND:                -2.322
REMARK  Name = 2520
REMARK  21 active torsions:
REMARK  status: ('A' for Active; 'I' for Inactive)
REMARK    1  A    between atoms: O_1  and  C_19
REMARK    2  A    between atoms: O_1  and  C_28
REMARK    3  A    between atoms: O_2  and  C_23
REMARK    4  A    between atoms: O_2  and  C_31
REMARK    5  A    between atoms: O_3  and  C_27
REMARK    6  A    between atoms: O_3  and  C_32
REMARK    7  A    between atoms: O_4  and  C_30
REMARK    8  A    between atoms: O_4  and  C_33
REMARK    9  A    between atoms: N_5  and  C_12
REMARK   10  A    between atoms: N_5  and  C_18
REMARK   11  A    between atoms: N_5  and  C_20
REMARK   12  A    between atoms: C_7  and  C_8
REMARK   13  A    between atoms: C_7  and  C_9
REMARK   14  A    between atoms: C_7  and  C_11
REMARK   15  A    between atoms: C_7  and  C_15
REMARK   16  A    between atoms: C_8  and  C_13
REMARK   17  A    between atoms: C_8  and  C_14
REMARK   18  A    between atoms: C_9  and  C_10
REMARK   19  A    between atoms: C_10  and  C_12
REMARK   20  A    between atoms: C_18  and  C_22
REMARK   21  A    between atoms: C_22  and  C_24
REMARK                            x       y       z     vdW  Elec       q    Type
REMARK                         _______ _______ _______ _____ _____    ______ ____
ROOT
ATOM      1  C   UNL A   1      -7.937  -2.786   1.696  0.00  0.00    -0.038 C 
ATOM      2  H   UNL A   1      -8.019  -2.335   0.703  0.00  0.00    +0.028 HD
ATOM      3  H   UNL A   1      -7.124  -2.281   2.224  0.00  0.00    +0.028 HD
ENDROOT
BRANCH   1   4
ATOM      4  C   UNL A   1      -7.534  -4.271   1.509  0.00  0.00    -0.001 C 
ATOM      5  H   UNL A   1      -8.283  -4.935   1.961  0.00  0.00    +0.043 HD
ATOM      6  H   UNL A   1      -7.556  -4.470   0.430  0.00  0.00    +0.043 HD
BRANCH   4   7
ATOM      7  N   UNL A   1      -6.172  -4.585   2.035  0.00  0.00    -0.305 NA
BRANCH   7   8
ATOM      8  C   UNL A   1      -6.270  -5.109   3.401  0.00  0.00    -0.013 C 
ATOM      9  H   UNL A   1      -5.325  -5.033   3.951  0.00  0.00    +0.039 HD
ATOM     10  H   UNL A   1      -7.042  -4.576   3.970  0.00  0.00    +0.039 HD
ATOM     11  H   UNL A   1      -6.593  -6.156   3.399  0.00  0.00    +0.039 HD
ENDBRANCH   7   8
BRANCH   7  12
ATOM     12  C   UNL A   1      -5.253  -3.413   1.947  0.00  0.00    +0.003 C 
ATOM     13  H   UNL A   1      -5.868  -2.513   2.052  0.00  0.00    +0.043 HD
ATOM     14  H   UNL A   1      -4.557  -3.440   2.793  0.00  0.00    +0.043 HD
BRANCH  12  15
ATOM     15  C   UNL A   1      -4.411  -3.244   0.644  0.00  0.00    -0.015 C 
ATOM     16  H   UNL A   1      -3.482  -3.818   0.763  0.00  0.00    +0.033 HD
ATOM     17  H   UNL A   1      -4.957  -3.674  -0.205  0.00  0.00    +0.033 HD
BRANCH  15  18
ATOM     18  C   UNL A   1      -3.959  -1.834   0.267  0.00  0.00    -0.043 A 
ATOM     19  C   UNL A   1      -3.239  -1.529  -0.901  0.00  0.00    -0.013 A 
ATOM     20  C   UNL A   1      -4.330  -0.767   1.096  0.00  0.00    -0.055 A 
ATOM     21  C   UNL A   1      -2.991  -0.195  -1.304  0.00  0.00    +0.162 A 
ATOM     22  C   UNL A   1      -4.054   0.554   0.729  0.00  0.00    -0.016 A 
ATOM     23  C   UNL A   1      -3.413   0.858  -0.479  0.00  0.00    +0.162 A 
ATOM     24  H   UNL A   1      -2.870  -2.348  -1.506  0.00  0.00    +0.066 HD
ATOM     25  H   UNL A   1      -4.855  -0.950   2.032  0.00  0.00    +0.062 HD
ATOM     26  H   UNL A   1      -4.362   1.365   1.388  0.00  0.00    +0.066 HD
BRANCH  23  27
ATOM     27  O   UNL A   1      -3.283   2.210  -0.681  0.00  0.00    -0.491 OA
BRANCH  27  28
ATOM     28  C   UNL A   1      -4.389   2.937  -1.203  0.00  0.00    +0.079 C 
ATOM     29  H   UNL A   1      -4.880   3.524  -0.423  0.00  0.00    +0.066 HD
ATOM     30  H   UNL A   1      -4.100   3.550  -2.065  0.00  0.00    +0.066 HD
ATOM     31  H   UNL A   1      -5.126   2.210  -1.558  0.00  0.00    +0.066 HD
ENDBRANCH  27  28
ENDBRANCH  23  27
BRANCH  21  32
ATOM     32  O   UNL A   1      -2.357   0.125  -2.471  0.00  0.00    -0.491 OA
BRANCH  32  33
ATOM     33  C   UNL A   1      -0.943   0.241  -2.495  0.00  0.00    +0.079 C 
ATOM     34  H   UNL A   1      -0.482  -0.734  -2.306  0.00  0.00    +0.066 HD
ATOM     35  H   UNL A   1      -0.567   0.687  -3.422  0.00  0.00    +0.066 HD
ATOM     36  H   UNL A   1      -0.655   0.915  -1.683  0.00  0.00    +0.066 HD
ENDBRANCH  32  33
ENDBRANCH  21  32
ENDBRANCH  15  18
ENDBRANCH  12  15
ENDBRANCH   7  12
ENDBRANCH   4   7
ENDBRANCH   1   4
BRANCH   1  37
ATOM     37  C   UNL A   1      -9.277  -2.565   2.475  0.00  0.00    -0.029 C 
ATOM     38  H   UNL A   1      -9.643  -3.551   2.795  0.00  0.00    +0.028 HD
ATOM     39  H   UNL A   1     -10.043  -2.208   1.776  0.00  0.00    +0.028 HD
BRANCH  37  40
ATOM     40  C   UNL A   1      -9.207  -1.572   3.756  0.00  0.00    +0.085 C 
BRANCH  40  41
ATOM     41  C   UNL A   1      -8.700  -0.232   3.148  0.00  0.00    -0.024 A 
ATOM     42  C   UNL A   1      -9.639   0.755   2.778  0.00  0.00    -0.012 A 
ATOM     43  C   UNL A   1      -7.348   0.138   3.089  0.00  0.00    -0.053 A 
ATOM     44  C   UNL A   1      -9.273   2.066   2.430  0.00  0.00    +0.162 A 
ATOM     45  C   UNL A   1      -6.966   1.414   2.664  0.00  0.00    -0.016 A 
ATOM     46  C   UNL A   1      -7.915   2.383   2.327  0.00  0.00    +0.162 A 
ATOM     47  H   UNL A   1     -10.699   0.505   2.803  0.00  0.00    +0.066 HD
ATOM     48  H   UNL A   1      -6.552  -0.531   3.402  0.00  0.00    +0.062 HD
ATOM     49  H   UNL A   1      -5.907   1.668   2.624  0.00  0.00    +0.066 HD
BRANCH  44  50
ATOM     50  O   UNL A   1     -10.210   3.042   2.215  0.00  0.00    -0.491 OA
BRANCH  50  51
ATOM     51  C   UNL A   1     -11.135   3.236   3.283  0.00  0.00    +0.079 C 
ATOM     52  H   UNL A   1     -12.112   3.460   2.849  0.00  0.00    +0.066 HD
ATOM     53  H   UNL A   1     -11.239   2.322   3.878  0.00  0.00    +0.066 HD
ATOM     54  H   UNL A   1     -10.851   4.084   3.921  0.00  0.00    +0.066 HD
ENDBRANCH  50  51
ENDBRANCH  44  50
BRANCH  46  55
ATOM     55  O   UNL A   1      -7.367   3.600   2.017  0.00  0.00    -0.491 OA
BRANCH  55  56
ATOM     56  C   UNL A   1      -5.959   3.719   2.175  0.00  0.00    +0.079 C 
ATOM     57  H   UNL A   1      -5.685   4.535   2.852  0.00  0.00    +0.066 HD
ATOM     58  H   UNL A   1      -5.523   2.768   2.492  0.00  0.00    +0.066 HD
ATOM     59  H   UNL A   1      -5.538   3.951   1.191  0.00  0.00    +0.066 HD
ENDBRANCH  55  56
ENDBRANCH  46  55
ENDBRANCH  40  41
BRANCH  40  60
ATOM     60  C   UNL A   1     -10.634  -1.497   4.430  0.00  0.00    -0.024 C 
ATOM     61  H   UNL A   1     -11.319  -1.021   3.717  0.00  0.00    +0.031 HD
BRANCH  60  62
ATOM     62  C   UNL A   1     -10.711  -0.659   5.715  0.00  0.00    -0.061 C 
ATOM     63  H   UNL A   1      -9.765  -0.156   5.949  0.00  0.00    +0.023 HD
ATOM     64  H   UNL A   1     -11.457   0.135   5.597  0.00  0.00    +0.023 HD
ATOM     65  H   UNL A   1     -10.995  -1.262   6.580  0.00  0.00    +0.023 HD
ENDBRANCH  60  62
BRANCH  60  66
ATOM     66  C   UNL A   1     -11.260  -2.871   4.733  0.00  0.00    -0.061 C 
ATOM     67  H   UNL A   1     -10.554  -3.685   4.546  0.00  0.00    +0.023 HD
ATOM     68  H   UNL A   1     -11.562  -2.927   5.786  0.00  0.00    +0.023 HD
ATOM     69  H   UNL A   1     -12.164  -3.050   4.147  0.00  0.00    +0.023 HD
ENDBRANCH  60  66
ENDBRANCH  40  60
BRANCH  40  71
ATOM     70  N   UNL A   1      -7.285  -2.559   5.508  0.00  0.00    -0.196 NA
ATOM     71  C   UNL A   1      -8.157  -2.111   4.713  0.00  0.00    +0.074 C 
ENDBRANCH  40  71
ENDBRANCH  37  40
ENDBRANCH   1  37
TORSDOF 21
ENDMDL
MODEL 9
REMARK VINA RESULT:    -6.094      2.997      8.783
REMARK INTER + INTRA:         -14.650
REMARK INTER:                 -12.328
REMARK INTRA:                  -2.322
REMARK UNBOUND:                -2.322
REMARK  Name = 2520
REMARK  21 active torsions:
REMARK  status: ('A' for Active; 'I' for Inactive)
REMARK    1  A    between atoms: O_1  and  C_19
REMARK    2  A    between atoms: O_1  and  C_28
REMARK    3  A    between atoms: O_2  and  C_23
REMARK    4  A    between atoms: O_2  and  C_31
REMARK    5  A    between atoms: O_3  and  C_27
REMARK    6  A    between atoms: O_3  and  C_32
REMARK    7  A    between atoms: O_4  and  C_30
REMARK    8  A    between atoms: O_4  and  C_33
REMARK    9  A    between atoms: N_5  and  C_12
REMARK   10  A    between atoms: N_5  and  C_18
REMARK   11  A    between atoms: N_5  and  C_20
REMARK   12  A    between atoms: C_7  and  C_8
REMARK   13  A    between atoms: C_7  and  C_9
REMARK   14  A    between atoms: C_7  and  C_11
REMARK   15  A    between atoms: C_7  and  C_15
REMARK   16  A    between atoms: C_8  and  C_13
REMARK   17  A    between atoms: C_8  and  C_14
REMARK   18  A    between atoms: C_9  and  C_10
REMARK   19  A    between atoms: C_10  and  C_12
REMARK   20  A    between atoms: C_18  and  C_22
REMARK   21  A    between atoms: C_22  and  C_24
REMARK                            x       y       z     vdW  Elec       q    Type
REMARK                         _______ _______ _______ _____ _____    ______ ____
ROOT
ATOM      1  C   UNL A   1      -9.529  -0.593   2.977  0.00  0.00    -0.038 C 
ATOM      2  H   UNL A   1      -9.394  -0.321   1.926  0.00  0.00    +0.028 HD
ATOM      3  H   UNL A   1     -10.347  -1.317   3.030  0.00  0.00    +0.028 HD
ENDROOT
BRANCH   1   4
ATOM      4  C   UNL A   1      -9.970   0.682   3.741  0.00  0.00    -0.001 C 
ATOM      5  H   UNL A   1      -9.168   1.033   4.404  0.00  0.00    +0.043 HD
ATOM      6  H   UNL A   1     -10.114   1.467   2.988  0.00  0.00    +0.043 HD
BRANCH   4   7
ATOM      7  N   UNL A   1     -11.240   0.502   4.508  0.00  0.00    -0.305 NA
BRANCH   7   8
ATOM      8  C   UNL A   1     -12.160   1.608   4.219  0.00  0.00    -0.013 C 
ATOM      9  H   UNL A   1     -11.658   2.461   3.748  0.00  0.00    +0.039 HD
ATOM     10  H   UNL A   1     -12.972   1.280   3.559  0.00  0.00    +0.039 HD
ATOM     11  H   UNL A   1     -12.659   1.954   5.132  0.00  0.00    +0.039 HD
ENDBRANCH   7   8
BRANCH   7  12
ATOM     12  C   UNL A   1     -10.993   0.343   5.970  0.00  0.00    +0.003 C 
ATOM     13  H   UNL A   1     -10.388   1.197   6.290  0.00  0.00    +0.043 HD
ATOM     14  H   UNL A   1     -11.951   0.397   6.502  0.00  0.00    +0.043 HD
BRANCH  12  15
ATOM     15  C   UNL A   1     -10.258  -0.948   6.448  0.00  0.00    -0.015 C 
ATOM     16  H   UNL A   1      -9.421  -1.137   5.760  0.00  0.00    +0.033 HD
ATOM     17  H   UNL A   1      -9.832  -0.781   7.445  0.00  0.00    +0.033 HD
BRANCH  15  18
ATOM     18  C   UNL A   1     -11.052  -2.253   6.471  0.00  0.00    -0.043 A 
ATOM     19  C   UNL A   1     -11.739  -2.731   7.599  0.00  0.00    -0.013 A 
ATOM     20  C   UNL A   1     -11.159  -2.994   5.286  0.00  0.00    -0.055 A 
ATOM     21  C   UNL A   1     -12.606  -3.848   7.535  0.00  0.00    +0.162 A 
ATOM     22  C   UNL A   1     -11.981  -4.124   5.220  0.00  0.00    -0.016 A 
ATOM     23  C   UNL A   1     -12.732  -4.546   6.325  0.00  0.00    +0.162 A 
ATOM     24  H   UNL A   1     -11.597  -2.219   8.543  0.00  0.00    +0.066 HD
ATOM     25  H   UNL A   1     -10.617  -2.690   4.392  0.00  0.00    +0.062 HD
ATOM     26  H   UNL A   1     -12.052  -4.676   4.284  0.00  0.00    +0.066 HD
BRANCH  23  27
ATOM     27  O   UNL A   1     -13.514  -5.639   6.043  0.00  0.00    -0.491 OA
BRANCH  27  28
ATOM     28  C   UNL A   1     -13.140  -6.494   4.969  0.00  0.00    +0.079 C 
ATOM     29  H   UNL A   1     -13.040  -5.935   4.035  0.00  0.00    +0.066 HD
ATOM     30  H   UNL A   1     -12.240  -7.073   5.206  0.00  0.00    +0.066 HD
ATOM     31  H   UNL A   1     -13.953  -7.212   4.819  0.00  0.00    +0.066 HD
ENDBRANCH  27  28
ENDBRANCH  23  27
BRANCH  21  32
ATOM     32  O   UNL A   1     -13.339  -4.285   8.602  0.00  0.00    -0.491 OA
BRANCH  32  33
ATOM     33  C   UNL A   1     -14.067  -3.351   9.384  0.00  0.00    +0.079 C 
ATOM     34  H   UNL A   1     -13.636  -3.284  10.388  0.00  0.00    +0.066 HD
ATOM     35  H   UNL A   1     -14.138  -2.365   8.913  0.00  0.00    +0.066 HD
ATOM     36  H   UNL A   1     -15.090  -3.728   9.478  0.00  0.00    +0.066 HD
ENDBRANCH  32  33
ENDBRANCH  21  32
ENDBRANCH  15  18
ENDBRANCH  12  15
ENDBRANCH   7  12
ENDBRANCH   4   7
ENDBRANCH   1   4
BRANCH   1  37
ATOM     37  C   UNL A   1      -8.215  -1.254   3.512  0.00  0.00    -0.029 C 
ATOM     38  H   UNL A   1      -8.434  -1.677   4.504  0.00  0.00    +0.028 HD
ATOM     39  H   UNL A   1      -7.475  -0.469   3.713  0.00  0.00    +0.028 HD
BRANCH  37  40
ATOM     40  C   UNL A   1      -7.552  -2.397   2.571  0.00  0.00    +0.085 C 
BRANCH  40  41
ATOM     41  C   UNL A   1      -6.233  -1.737   2.074  0.00  0.00    -0.024 A 
ATOM     42  C   UNL A   1      -5.463  -2.393   1.089  0.00  0.00    -0.012 A 
ATOM     43  C   UNL A   1      -5.829  -0.439   2.422  0.00  0.00    -0.053 A 
ATOM     44  C   UNL A   1      -4.386  -1.780   0.428  0.00  0.00    +0.162 A 
ATOM     45  C   UNL A   1      -4.708   0.152   1.831  0.00  0.00    -0.016 A 
ATOM     46  C   UNL A   1      -3.976  -0.508   0.839  0.00  0.00    +0.162 A 
ATOM     47  H   UNL A   1      -5.740  -3.405   0.797  0.00  0.00    +0.066 HD
ATOM     48  H   UNL A   1      -6.384   0.168   3.131  0.00  0.00    +0.062 HD
ATOM     49  H   UNL A   1      -4.416   1.159   2.127  0.00  0.00    +0.066 HD
BRANCH  44  50
ATOM     50  O   UNL A   1      -3.747  -2.385  -0.623  0.00  0.00    -0.491 OA
BRANCH  50  51
ATOM     51  C   UNL A   1      -3.691  -3.809  -0.553  0.00  0.00    +0.079 C 
ATOM     52  H   UNL A   1      -3.800  -4.202  -1.566  0.00  0.00    +0.066 HD
ATOM     53  H   UNL A   1      -2.720  -4.142  -0.172  0.00  0.00    +0.066 HD
ATOM     54  H   UNL A   1      -4.508  -4.221   0.054  0.00  0.00    +0.066 HD
ENDBRANCH  50  51
ENDBRANCH  44  50
BRANCH  46  55
ATOM     55  O   UNL A   1      -2.965   0.251   0.311  0.00  0.00    -0.491 OA
BRANCH  55  56
ATOM     56  C   UNL A   1      -3.352   1.289  -0.581  0.00  0.00    +0.079 C 
ATOM     57  H   UNL A   1      -3.304   2.278  -0.112  0.00  0.00    +0.066 HD
ATOM     58  H   UNL A   1      -2.761   1.250  -1.500  0.00  0.00    +0.066 HD
ATOM     59  H   UNL A   1      -4.394   1.106  -0.862  0.00  0.00    +0.066 HD
ENDBRANCH  55  56
ENDBRANCH  46  55
ENDBRANCH  40  41
BRANCH  40  60
ATOM     60  C   UNL A   1      -7.355  -3.715   3.420  0.00  0.00    -0.024 C 
ATOM     61  H   UNL A   1      -6.352  -4.108   3.207  0.00  0.00    +0.031 HD
BRANCH  60  62
ATOM     62  C   UNL A   1      -8.332  -4.856   3.099  0.00  0.00    -0.061 C 
ATOM     63  H   UNL A   1      -7.827  -5.750   2.716  0.00  0.00    +0.023 HD
ATOM     64  H   UNL A   1      -8.853  -5.167   4.012  0.00  0.00    +0.023 HD
ATOM     65  H   UNL A   1      -9.085  -4.555   2.367  0.00  0.00    +0.023 HD
ENDBRANCH  60  62
BRANCH  60  66
ATOM     66  C   UNL A   1      -7.384  -3.493   4.944  0.00  0.00    -0.061 C 
ATOM     67  H   UNL A   1      -8.303  -3.882   5.390  0.00  0.00    +0.023 HD
ATOM     68  H   UNL A   1      -6.538  -4.005   5.419  0.00  0.00    +0.023 HD
ATOM     69  H   UNL A   1      -7.287  -2.437   5.208  0.00  0.00    +0.023 HD
ENDBRANCH  60  66
ENDBRANCH  40  60
BRANCH  40  71
ATOM     70  N   UNL A   1      -9.237  -2.807   0.397  0.00  0.00    -0.196 NA
ATOM     71  C   UNL A   1      -8.473  -2.622   1.383  0.00  0.00    +0.074 C 
ENDBRANCH  40  71
ENDBRANCH  37  40
ENDBRANCH   1  37
TORSDOF 21
ENDMDL
