MODEL 1
REMARK VINA RESULT:    -6.826      0.000      0.000
REMARK INTER + INTRA:         -15.221
REMARK INTER:                 -13.092
REMARK INTRA:                  -2.129
REMARK UNBOUND:                -1.412
REMARK  Name = 2520
REMARK  21 active torsions:
REMARK  status: ('A' for Active; 'I' for Inactive)
REMARK    1  A    between atoms: O_1  and  C_19
REMARK    2  A    between atoms: O_1  and  C_28
REMARK    3  A    between atoms: O_2  and  C_23
REMARK    4  A    between atoms: O_2  and  C_31
REMARK    5  A    between atoms: O_3  and  C_27
REMARK    6  A    between atoms: O_3  and  C_32
REMARK    7  A    between atoms: O_4  and  C_30
REMARK    8  A    between atoms: O_4  and  C_33
REMARK    9  A    between atoms: N_5  and  C_12
REMARK   10  A    between atoms: N_5  and  C_18
REMARK   11  A    between atoms: N_5  and  C_20
REMARK   12  A    between atoms: C_7  and  C_8
REMARK   13  A    between atoms: C_7  and  C_9
REMARK   14  A    between atoms: C_7  and  C_11
REMARK   15  A    between atoms: C_7  and  C_15
REMARK   16  A    between atoms: C_8  and  C_13
REMARK   17  A    between atoms: C_8  and  C_14
REMARK   18  A    between atoms: C_9  and  C_10
REMARK   19  A    between atoms: C_10  and  C_12
REMARK   20  A    between atoms: C_18  and  C_22
REMARK   21  A    between atoms: C_22  and  C_24
REMARK                            x       y       z     vdW  Elec       q    Type
REMARK                         _______ _______ _______ _____ _____    ______ ____
ROOT
ATOM      1  C   UNL A   1      -6.042  -2.164   1.120  0.00  0.00    -0.038 C 
ATOM      2  H   UNL A   1      -6.170  -1.455   0.296  0.00  0.00    +0.028 HD
ATOM      3  H   UNL A   1      -5.743  -1.594   2.004  0.00  0.00    +0.028 HD
ENDROOT
BRANCH   1   4
ATOM      4  C   UNL A   1      -4.875  -3.114   0.748  0.00  0.00    -0.001 C 
ATOM      5  H   UNL A   1      -4.393  -3.509   1.653  0.00  0.00    +0.043 HD
ATOM      6  H   UNL A   1      -5.321  -3.977   0.236  0.00  0.00    +0.043 HD
BRANCH   4   7
ATOM      7  N   UNL A   1      -3.862  -2.484  -0.151  0.00  0.00    -0.305 NA
BRANCH   7   8
ATOM      8  C   UNL A   1      -3.111  -3.522  -0.866  0.00  0.00    -0.013 C 
ATOM      9  H   UNL A   1      -3.289  -3.501  -1.947  0.00  0.00    +0.039 HD
ATOM     10  H   UNL A   1      -2.034  -3.415  -0.693  0.00  0.00    +0.039 HD
ATOM     11  H   UNL A   1      -3.361  -4.520  -0.488  0.00  0.00    +0.039 HD
ENDBRANCH   7   8
BRANCH   7  12
ATOM     12  C   UNL A   1      -2.964  -1.548   0.587  0.00  0.00    +0.003 C 
ATOM     13  H   UNL A   1      -3.438  -1.341   1.552  0.00  0.00    +0.043 HD
ATOM     14  H   UNL A   1      -2.011  -2.051   0.786  0.00  0.00    +0.043 HD
BRANCH  12  15
ATOM     15  C   UNL A   1      -2.646  -0.171  -0.076  0.00  0.00    -0.015 C 
ATOM     16  H   UNL A   1      -1.717   0.213   0.369  0.00  0.00    +0.033 HD
ATOM     17  H   UNL A   1      -2.463  -0.313  -1.148  0.00  0.00    +0.033 HD
BRANCH  15  18
ATOM     18  C   UNL A   1      -3.664   0.955   0.099  0.00  0.00    -0.043 A 
ATOM     19  C   UNL A   1      -4.527   1.065   1.202  0.00  0.00    -0.013 A 
ATOM     20  C   UNL A   1      -3.706   1.975  -0.860  0.00  0.00    -0.055 A 
ATOM     21  C   UNL A   1      -5.330   2.211   1.417  0.00  0.00    +0.162 A 
ATOM     22  C   UNL A   1      -4.526   3.094  -0.680  0.00  0.00    -0.016 A 
ATOM     23  C   UNL A   1      -5.320   3.240   0.465  0.00  0.00    +0.162 A 
ATOM     24  H   UNL A   1      -4.569   0.243   1.907  0.00  0.00    +0.066 HD
ATOM     25  H   UNL A   1      -3.086   1.921  -1.754  0.00  0.00    +0.062 HD
ATOM     26  H   UNL A   1      -4.533   3.877  -1.437  0.00  0.00    +0.066 HD
BRANCH  23  27
ATOM     27  O   UNL A   1      -6.009   4.428   0.480  0.00  0.00    -0.491 OA
BRANCH  27  28
ATOM     28  C   UNL A   1      -5.481   5.521   1.222  0.00  0.00    +0.079 C 
ATOM     29  H   UNL A   1      -6.271   6.058   1.751  0.00  0.00    +0.066 HD
ATOM     30  H   UNL A   1      -4.673   5.204   1.891  0.00  0.00    +0.066 HD
ATOM     31  H   UNL A   1      -5.046   6.228   0.507  0.00  0.00    +0.066 HD
ENDBRANCH  27  28
ENDBRANCH  23  27
BRANCH  21  32
ATOM     32  O   UNL A   1      -6.121   2.370   2.519  0.00  0.00    -0.491 OA
BRANCH  32  33
ATOM     33  C   UNL A   1      -7.123   1.407   2.811  0.00  0.00    +0.079 C 
ATOM     34  H   UNL A   1      -7.083   1.132   3.869  0.00  0.00    +0.066 HD
ATOM     35  H   UNL A   1      -8.127   1.736   2.521  0.00  0.00    +0.066 HD
ATOM     36  H   UNL A   1      -6.901   0.515   2.220  0.00  0.00    +0.066 HD
ENDBRANCH  32  33
ENDBRANCH  21  32
ENDBRANCH  15  18
ENDBRANCH  12  15
ENDBRANCH   7  12
ENDBRANCH   4   7
ENDBRANCH   1   4
BRANCH   1  37
ATOM     37  C   UNL A   1      -7.405  -2.881   1.402  0.00  0.00    -0.029 C 
ATOM     38  H   UNL A   1      -7.340  -3.896   0.985  0.00  0.00    +0.028 HD
ATOM     39  H   UNL A   1      -8.192  -2.397   0.811  0.00  0.00    +0.028 HD
BRANCH  37  40
ATOM     40  C   UNL A   1      -7.865  -2.963   2.955  0.00  0.00    +0.085 C 
BRANCH  40  41
ATOM     41  C   UNL A   1      -9.151  -2.088   2.999  0.00  0.00    -0.024 A 
ATOM     42  C   UNL A   1      -9.837  -1.932   4.223  0.00  0.00    -0.012 A 
ATOM     43  C   UNL A   1      -9.597  -1.299   1.928  0.00  0.00    -0.053 A 
ATOM     44  C   UNL A   1     -10.869  -0.997   4.407  0.00  0.00    +0.162 A 
ATOM     45  C   UNL A   1     -10.678  -0.424   2.075  0.00  0.00    -0.016 A 
ATOM     46  C   UNL A   1     -11.325  -0.268   3.304  0.00  0.00    +0.162 A 
ATOM     47  H   UNL A   1      -9.526  -2.533   5.077  0.00  0.00    +0.066 HD
ATOM     48  H   UNL A   1      -9.103  -1.307   0.960  0.00  0.00    +0.062 HD
ATOM     49  H   UNL A   1     -11.003   0.171   1.222  0.00  0.00    +0.066 HD
BRANCH  44  50
ATOM     50  O   UNL A   1     -11.420  -0.766   5.641  0.00  0.00    -0.491 OA
BRANCH  50  51
ATOM     51  C   UNL A   1     -11.016  -1.677   6.660  0.00  0.00    +0.079 C 
ATOM     52  H   UNL A   1     -11.289  -1.247   7.627  0.00  0.00    +0.066 HD
ATOM     53  H   UNL A   1     -11.546  -2.631   6.562  0.00  0.00    +0.066 HD
ATOM     54  H   UNL A   1      -9.929  -1.835   6.661  0.00  0.00    +0.066 HD
ENDBRANCH  50  51
ENDBRANCH  44  50
BRANCH  46  55
ATOM     55  O   UNL A   1     -12.304   0.691   3.288  0.00  0.00    -0.491 OA
BRANCH  55  56
ATOM     56  C   UNL A   1     -11.865   2.043   3.246  0.00  0.00    +0.079 C 
ATOM     57  H   UNL A   1     -11.660   2.444   4.245  0.00  0.00    +0.066 HD
ATOM     58  H   UNL A   1     -11.001   2.149   2.584  0.00  0.00    +0.066 HD
ATOM     59  H   UNL A   1     -12.676   2.636   2.811  0.00  0.00    +0.066 HD
ENDBRANCH  55  56
ENDBRANCH  46  55
ENDBRANCH  40  41
BRANCH  40  60
ATOM     60  C   UNL A   1      -8.079  -4.477   3.352  0.00  0.00    -0.024 C 
ATOM     61  H   UNL A   1      -8.390  -4.510   4.404  0.00  0.00    +0.031 HD
BRANCH  60  62
ATOM     62  C   UNL A   1      -6.830  -5.365   3.253  0.00  0.00    -0.061 C 
ATOM     63  H   UNL A   1      -6.203  -5.314   4.150  0.00  0.00    +0.023 HD
ATOM     64  H   UNL A   1      -7.126  -6.415   3.148  0.00  0.00    +0.023 HD
ATOM     65  H   UNL A   1      -6.209  -5.103   2.393  0.00  0.00    +0.023 HD
ENDBRANCH  60  62
BRANCH  60  66
ATOM     66  C   UNL A   1      -9.209  -5.177   2.575  0.00  0.00    -0.061 C 
ATOM     67  H   UNL A   1      -8.987  -5.238   1.506  0.00  0.00    +0.023 HD
ATOM     68  H   UNL A   1      -9.349  -6.200   2.946  0.00  0.00    +0.023 HD
ATOM     69  H   UNL A   1     -10.171  -4.673   2.704  0.00  0.00    +0.023 HD
ENDBRANCH  60  66
ENDBRANCH  40  60
BRANCH  40  71
ATOM     70  N   UNL A   1      -5.893  -1.756   4.503  0.00  0.00    -0.196 NA
ATOM     71  C   UNL A   1      -6.788  -2.303   3.801  0.00  0.00    +0.074 C 
ENDBRANCH  40  71
ENDBRANCH  37  40
ENDBRANCH   1  37
TORSDOF 21
ENDMDL
MODEL 2
REMARK VINA RESULT:    -6.752      2.323      4.767
REMARK INTER + INTRA:         -15.072
REMARK INTER:                 -13.189
REMARK INTRA:                  -1.883
REMARK UNBOUND:                -1.412
REMARK  Name = 2520
REMARK  21 active torsions:
REMARK  status: ('A' for Active; 'I' for Inactive)
REMARK    1  A    between atoms: O_1  and  C_19
REMARK    2  A    between atoms: O_1  and  C_28
REMARK    3  A    between atoms: O_2  and  C_23
REMARK    4  A    between atoms: O_2  and  C_31
REMARK    5  A    between atoms: O_3  and  C_27
REMARK    6  A    between atoms: O_3  and  C_32
REMARK    7  A    between atoms: O_4  and  C_30
REMARK    8  A    between atoms: O_4  and  C_33
REMARK    9  A    between atoms: N_5  and  C_12
REMARK   10  A    between atoms: N_5  and  C_18
REMARK   11  A    between atoms: N_5  and  C_20
REMARK   12  A    between atoms: C_7  and  C_8
REMARK   13  A    between atoms: C_7  and  C_9
REMARK   14  A    between atoms: C_7  and  C_11
REMARK   15  A    between atoms: C_7  and  C_15
REMARK   16  A    between atoms: C_8  and  C_13
REMARK   17  A    between atoms: C_8  and  C_14
REMARK   18  A    between atoms: C_9  and  C_10
REMARK   19  A    between atoms: C_10  and  C_12
REMARK   20  A    between atoms: C_18  and  C_22
REMARK   21  A    between atoms: C_22  and  C_24
REMARK                            x       y       z     vdW  Elec       q    Type
REMARK                         _______ _______ _______ _____ _____    ______ ____
ROOT
ATOM      1  C   UNL A   1      -8.316  -0.836   3.037  0.00  0.00    -0.038 C 
ATOM      2  H   UNL A   1      -7.509  -0.106   2.917  0.00  0.00    +0.028 HD
ATOM      3  H   UNL A   1      -8.558  -0.891   4.101  0.00  0.00    +0.028 HD
ENDROOT
BRANCH   1   4
ATOM      4  C   UNL A   1      -7.770  -2.219   2.600  0.00  0.00    -0.001 C 
ATOM      5  H   UNL A   1      -8.595  -2.920   2.413  0.00  0.00    +0.043 HD
ATOM      6  H   UNL A   1      -7.268  -2.071   1.635  0.00  0.00    +0.043 HD
BRANCH   4   7
ATOM      7  N   UNL A   1      -6.798  -2.806   3.571  0.00  0.00    -0.305 NA
BRANCH   7   8
ATOM      8  C   UNL A   1      -7.459  -3.049   4.857  0.00  0.00    -0.013 C 
ATOM      9  H   UNL A   1      -8.488  -3.409   4.740  0.00  0.00    +0.039 HD
ATOM     10  H   UNL A   1      -6.903  -3.785   5.450  0.00  0.00    +0.039 HD
ATOM     11  H   UNL A   1      -7.471  -2.142   5.472  0.00  0.00    +0.039 HD
ENDBRANCH   7   8
BRANCH   7  12
ATOM     12  C   UNL A   1      -5.576  -1.963   3.717  0.00  0.00    +0.003 C 
ATOM     13  H   UNL A   1      -5.911  -0.940   3.918  0.00  0.00    +0.043 HD
ATOM     14  H   UNL A   1      -5.009  -2.304   4.591  0.00  0.00    +0.043 HD
BRANCH  12  15
ATOM     15  C   UNL A   1      -4.589  -1.895   2.509  0.00  0.00    -0.015 C 
ATOM     16  H   UNL A   1      -3.587  -2.160   2.874  0.00  0.00    +0.033 HD
ATOM     17  H   UNL A   1      -4.875  -2.642   1.759  0.00  0.00    +0.033 HD
BRANCH  15  18
ATOM     18  C   UNL A   1      -4.413  -0.548   1.810  0.00  0.00    -0.043 A 
ATOM     19  C   UNL A   1      -3.621  -0.358   0.665  0.00  0.00    -0.013 A 
ATOM     20  C   UNL A   1      -5.125   0.558   2.295  0.00  0.00    -0.055 A 
ATOM     21  C   UNL A   1      -3.621   0.861  -0.056  0.00  0.00    +0.162 A 
ATOM     22  C   UNL A   1      -5.101   1.780   1.614  0.00  0.00    -0.016 A 
ATOM     23  C   UNL A   1      -4.379   1.938   0.424  0.00  0.00    +0.162 A 
ATOM     24  H   UNL A   1      -2.997  -1.178   0.329  0.00  0.00    +0.066 HD
ATOM     25  H   UNL A   1      -5.724   0.477   3.200  0.00  0.00    +0.062 HD
ATOM     26  H   UNL A   1      -5.671   2.620   2.008  0.00  0.00    +0.066 HD
BRANCH  23  27
ATOM     27  O   UNL A   1      -4.525   3.192  -0.117  0.00  0.00    -0.491 OA
BRANCH  27  28
ATOM     28  C   UNL A   1      -5.687   3.948   0.202  0.00  0.00    +0.079 C 
ATOM     29  H   UNL A   1      -6.592   3.343   0.100  0.00  0.00    +0.066 HD
ATOM     30  H   UNL A   1      -5.608   4.416   1.189  0.00  0.00    +0.066 HD
ATOM     31  H   UNL A   1      -5.767   4.757  -0.532  0.00  0.00    +0.066 HD
ENDBRANCH  27  28
ENDBRANCH  23  27
BRANCH  21  32
ATOM     32  O   UNL A   1      -2.915   1.042  -1.211  0.00  0.00    -0.491 OA
BRANCH  32  33
ATOM     33  C   UNL A   1      -1.557   0.633  -1.278  0.00  0.00    +0.079 C 
ATOM     34  H   UNL A   1      -1.134   0.568  -0.271  0.00  0.00    +0.066 HD
ATOM     35  H   UNL A   1      -1.421  -0.303  -1.830  0.00  0.00    +0.066 HD
ATOM     36  H   UNL A   1      -1.009   1.404  -1.827  0.00  0.00    +0.066 HD
ENDBRANCH  32  33
ENDBRANCH  21  32
ENDBRANCH  15  18
ENDBRANCH  12  15
ENDBRANCH   7  12
ENDBRANCH   4   7
ENDBRANCH   1   4
BRANCH   1  37
ATOM     37  C   UNL A   1      -9.574  -0.349   2.243  0.00  0.00    -0.029 C 
ATOM     38  H   UNL A   1     -10.077  -1.238   1.837  0.00  0.00    +0.028 HD
ATOM     39  H   UNL A   1      -9.245   0.203   1.354  0.00  0.00    +0.028 HD
BRANCH  37  40
ATOM     40  C   UNL A   1     -10.644   0.546   3.072  0.00  0.00    +0.085 C 
BRANCH  40  41
ATOM     41  C   UNL A   1     -10.911  -0.302   4.350  0.00  0.00    -0.024 A 
ATOM     42  C   UNL A   1     -11.278  -1.659   4.212  0.00  0.00    -0.012 A 
ATOM     43  C   UNL A   1     -10.655   0.147   5.654  0.00  0.00    -0.053 A 
ATOM     44  C   UNL A   1     -11.325  -2.551   5.296  0.00  0.00    +0.162 A 
ATOM     45  C   UNL A   1     -10.780  -0.710   6.752  0.00  0.00    -0.016 A 
ATOM     46  C   UNL A   1     -11.119  -2.057   6.588  0.00  0.00    +0.162 A 
ATOM     47  H   UNL A   1     -11.492  -2.044   3.216  0.00  0.00    +0.066 HD
ATOM     48  H   UNL A   1     -10.317   1.159   5.861  0.00  0.00    +0.062 HD
ATOM     49  H   UNL A   1     -10.580  -0.329   7.752  0.00  0.00    +0.066 HD
BRANCH  44  50
ATOM     50  O   UNL A   1     -11.542  -3.892   5.116  0.00  0.00    -0.491 OA
BRANCH  50  51
ATOM     51  C   UNL A   1     -12.899  -4.307   5.265  0.00  0.00    +0.079 C 
ATOM     52  H   UNL A   1     -12.981  -5.333   4.898  0.00  0.00    +0.066 HD
ATOM     53  H   UNL A   1     -13.191  -4.309   6.320  0.00  0.00    +0.066 HD
ATOM     54  H   UNL A   1     -13.584  -3.685   4.673  0.00  0.00    +0.066 HD
ENDBRANCH  50  51
ENDBRANCH  44  50
BRANCH  46  55
ATOM     55  O   UNL A   1     -11.112  -2.768   7.759  0.00  0.00    -0.491 OA
BRANCH  55  56
ATOM     56  C   UNL A   1     -12.305  -2.729   8.531  0.00  0.00    +0.079 C 
ATOM     57  H   UNL A   1     -12.383  -3.578   9.218  0.00  0.00    +0.066 HD
ATOM     58  H   UNL A   1     -12.395  -1.774   9.057  0.00  0.00    +0.066 HD
ATOM     59  H   UNL A   1     -13.147  -2.790   7.834  0.00  0.00    +0.066 HD
ENDBRANCH  55  56
ENDBRANCH  46  55
ENDBRANCH  40  41
BRANCH  40  60
ATOM     60  C   UNL A   1     -10.024   1.974   3.341  0.00  0.00    -0.024 C 
ATOM     61  H   UNL A   1      -9.482   1.932   4.295  0.00  0.00    +0.031 HD
BRANCH  60  62
ATOM     62  C   UNL A   1     -11.041   3.116   3.483  0.00  0.00    -0.061 C 
ATOM     63  H   UNL A   1     -11.181   3.676   2.551  0.00  0.00    +0.023 HD
ATOM     64  H   UNL A   1     -12.024   2.708   3.744  0.00  0.00    +0.023 HD
ATOM     65  H   UNL A   1     -10.753   3.825   4.262  0.00  0.00    +0.023 HD
ENDBRANCH  60  62
BRANCH  60  66
ATOM     66  C   UNL A   1      -8.976   2.411   2.301  0.00  0.00    -0.061 C 
ATOM     67  H   UNL A   1      -8.741   3.476   2.390  0.00  0.00    +0.023 HD
ATOM     68  H   UNL A   1      -8.044   1.850   2.441  0.00  0.00    +0.023 HD
ATOM     69  H   UNL A   1      -9.302   2.209   1.278  0.00  0.00    +0.023 HD
ENDBRANCH  60  66
ENDBRANCH  40  60
BRANCH  40  71
ATOM     70  N   UNL A   1     -12.984   0.697   1.576  0.00  0.00    -0.196 NA
ATOM     71  C   UNL A   1     -11.922   0.629   2.255  0.00  0.00    +0.074 C 
ENDBRANCH  40  71
ENDBRANCH  37  40
ENDBRANCH   1  37
TORSDOF 21
ENDMDL
MODEL 3
REMARK VINA RESULT:    -6.657      2.356      5.403
REMARK INTER + INTRA:         -14.879
REMARK INTER:                 -13.195
REMARK INTRA:                  -1.683
REMARK UNBOUND:                -1.412
REMARK  Name = 2520
REMARK  21 active torsions:
REMARK  status: ('A' for Active; 'I' for Inactive)
REMARK    1  A    between atoms: O_1  and  C_19
REMARK    2  A    between atoms: O_1  and  C_28
REMARK    3  A    between atoms: O_2  and  C_23
REMARK    4  A    between atoms: O_2  and  C_31
REMARK    5  A    between atoms: O_3  and  C_27
REMARK    6  A    between atoms: O_3  and  C_32
REMARK    7  A    between atoms: O_4  and  C_30
REMARK    8  A    between atoms: O_4  and  C_33
REMARK    9  A    between atoms: N_5  and  C_12
REMARK   10  A    between atoms: N_5  and  C_18
REMARK   11  A    between atoms: N_5  and  C_20
REMARK   12  A    between atoms: C_7  and  C_8
REMARK   13  A    between atoms: C_7  and  C_9
REMARK   14  A    between atoms: C_7  and  C_11
REMARK   15  A    between atoms: C_7  and  C_15
REMARK   16  A    between atoms: C_8  and  C_13
REMARK   17  A    between atoms: C_8  and  C_14
REMARK   18  A    between atoms: C_9  and  C_10
REMARK   19  A    between atoms: C_10  and  C_12
REMARK   20  A    between atoms: C_18  and  C_22
REMARK   21  A    between atoms: C_22  and  C_24
REMARK                            x       y       z     vdW  Elec       q    Type
REMARK                         _______ _______ _______ _____ _____    ______ ____
ROOT
ATOM      1  C   UNL A   1      -8.861  -3.112   2.093  0.00  0.00    -0.038 C 
ATOM      2  H   UNL A   1      -8.601  -3.427   3.108  0.00  0.00    +0.028 HD
ATOM      3  H   UNL A   1      -9.741  -3.682   1.784  0.00  0.00    +0.028 HD
ENDROOT
BRANCH   1   4
ATOM      4  C   UNL A   1      -7.686  -3.505   1.160  0.00  0.00    -0.001 C 
ATOM      5  H   UNL A   1      -8.064  -3.933   0.222  0.00  0.00    +0.043 HD
ATOM      6  H   UNL A   1      -7.173  -2.573   0.889  0.00  0.00    +0.043 HD
BRANCH   4   7
ATOM      7  N   UNL A   1      -6.707  -4.432   1.801  0.00  0.00    -0.305 NA
BRANCH   7   8
ATOM      8  C   UNL A   1      -7.342  -5.138   2.920  0.00  0.00    -0.013 C 
ATOM      9  H   UNL A   1      -7.170  -6.220   2.887  0.00  0.00    +0.039 HD
ATOM     10  H   UNL A   1      -6.974  -4.760   3.881  0.00  0.00    +0.039 HD
ATOM     11  H   UNL A   1      -8.422  -4.955   2.938  0.00  0.00    +0.039 HD
ENDBRANCH   7   8
BRANCH   7  12
ATOM     12  C   UNL A   1      -5.459  -3.729   2.217  0.00  0.00    +0.003 C 
ATOM     13  H   UNL A   1      -5.483  -3.647   3.309  0.00  0.00    +0.043 HD
ATOM     14  H   UNL A   1      -4.594  -4.347   1.950  0.00  0.00    +0.043 HD
BRANCH  12  15
ATOM     15  C   UNL A   1      -5.209  -2.295   1.653  0.00  0.00    -0.015 C 
ATOM     16  H   UNL A   1      -6.183  -1.856   1.397  0.00  0.00    +0.033 HD
ATOM     17  H   UNL A   1      -4.761  -1.667   2.433  0.00  0.00    +0.033 HD
BRANCH  15  18
ATOM     18  C   UNL A   1      -4.370  -2.166   0.383  0.00  0.00    -0.043 A 
ATOM     19  C   UNL A   1      -4.167  -0.957  -0.302  0.00  0.00    -0.013 A 
ATOM     20  C   UNL A   1      -3.710  -3.304  -0.103  0.00  0.00    -0.055 A 
ATOM     21  C   UNL A   1      -3.245  -0.843  -1.370  0.00  0.00    +0.162 A 
ATOM     22  C   UNL A   1      -2.828  -3.212  -1.184  0.00  0.00    -0.016 A 
ATOM     23  C   UNL A   1      -2.562  -1.986  -1.808  0.00  0.00    +0.162 A 
ATOM     24  H   UNL A   1      -4.737  -0.089   0.007  0.00  0.00    +0.066 HD
ATOM     25  H   UNL A   1      -3.862  -4.274   0.366  0.00  0.00    +0.062 HD
ATOM     26  H   UNL A   1      -2.321  -4.110  -1.535  0.00  0.00    +0.066 HD
BRANCH  23  27
ATOM     27  O   UNL A   1      -1.630  -2.097  -2.810  0.00  0.00    -0.491 OA
BRANCH  27  28
ATOM     28  C   UNL A   1      -0.742  -3.208  -2.805  0.00  0.00    +0.079 C 
ATOM     29  H   UNL A   1      -0.789  -3.756  -3.750  0.00  0.00    +0.066 HD
ATOM     30  H   UNL A   1       0.280  -2.909  -2.547  0.00  0.00    +0.066 HD
ATOM     31  H   UNL A   1      -1.081  -3.899  -2.026  0.00  0.00    +0.066 HD
ENDBRANCH  27  28
ENDBRANCH  23  27
BRANCH  21  32
ATOM     32  O   UNL A   1      -2.979   0.339  -2.002  0.00  0.00    -0.491 OA
BRANCH  32  33
ATOM     33  C   UNL A   1      -3.518   0.583  -3.293  0.00  0.00    +0.079 C 
ATOM     34  H   UNL A   1      -3.203  -0.202  -3.986  0.00  0.00    +0.066 HD
ATOM     35  H   UNL A   1      -4.607   0.696  -3.285  0.00  0.00    +0.066 HD
ATOM     36  H   UNL A   1      -3.106   1.533  -3.646  0.00  0.00    +0.066 HD
ENDBRANCH  32  33
ENDBRANCH  21  32
ENDBRANCH  15  18
ENDBRANCH  12  15
ENDBRANCH   7  12
ENDBRANCH   4   7
ENDBRANCH   1   4
BRANCH   1  37
ATOM     37  C   UNL A   1      -9.208  -1.585   2.099  0.00  0.00    -0.029 C 
ATOM     38  H   UNL A   1     -10.248  -1.477   1.759  0.00  0.00    +0.028 HD
ATOM     39  H   UNL A   1      -8.618  -1.080   1.324  0.00  0.00    +0.028 HD
BRANCH  37  40
ATOM     40  C   UNL A   1      -9.019  -0.812   3.513  0.00  0.00    +0.085 C 
BRANCH  40  41
ATOM     41  C   UNL A   1      -8.414   0.560   3.098  0.00  0.00    -0.024 A 
ATOM     42  C   UNL A   1      -7.012   0.692   2.997  0.00  0.00    -0.012 A 
ATOM     43  C   UNL A   1      -9.178   1.650   2.654  0.00  0.00    -0.053 A 
ATOM     44  C   UNL A   1      -6.389   1.814   2.424  0.00  0.00    +0.162 A 
ATOM     45  C   UNL A   1      -8.568   2.807   2.159  0.00  0.00    -0.016 A 
ATOM     46  C   UNL A   1      -7.178   2.904   2.044  0.00  0.00    +0.162 A 
ATOM     47  H   UNL A   1      -6.383  -0.129   3.338  0.00  0.00    +0.066 HD
ATOM     48  H   UNL A   1     -10.264   1.627   2.642  0.00  0.00    +0.062 HD
ATOM     49  H   UNL A   1      -9.190   3.638   1.828  0.00  0.00    +0.066 HD
BRANCH  44  50
ATOM     50  O   UNL A   1      -5.037   1.854   2.207  0.00  0.00    -0.491 OA
BRANCH  50  51
ATOM     51  C   UNL A   1      -4.651   2.136   0.863  0.00  0.00    +0.079 C 
ATOM     52  H   UNL A   1      -4.852   1.248   0.260  0.00  0.00    +0.066 HD
ATOM     53  H   UNL A   1      -5.247   2.958   0.451  0.00  0.00    +0.066 HD
ATOM     54  H   UNL A   1      -3.578   2.357   0.785  0.00  0.00    +0.066 HD
ENDBRANCH  50  51
ENDBRANCH  44  50
BRANCH  46  55
ATOM     55  O   UNL A   1      -6.759   4.071   1.461  0.00  0.00    -0.491 OA
BRANCH  55  56
ATOM     56  C   UNL A   1      -6.328   5.100   2.342  0.00  0.00    +0.079 C 
ATOM     57  H   UNL A   1      -6.382   6.092   1.879  0.00  0.00    +0.066 HD
ATOM     58  H   UNL A   1      -6.885   5.063   3.282  0.00  0.00    +0.066 HD
ATOM     59  H   UNL A   1      -5.279   4.905   2.583  0.00  0.00    +0.066 HD
ENDBRANCH  55  56
ENDBRANCH  46  55
ENDBRANCH  40  41
BRANCH  40  60
ATOM     60  C   UNL A   1     -10.417  -0.727   4.245  0.00  0.00    -0.024 C 
ATOM     61  H   UNL A   1     -11.127  -0.242   3.562  0.00  0.00    +0.031 HD
BRANCH  60  62
ATOM     62  C   UNL A   1     -10.434   0.109   5.534  0.00  0.00    -0.061 C 
ATOM     63  H   UNL A   1     -10.174   1.159   5.360  0.00  0.00    +0.023 HD
ATOM     64  H   UNL A   1     -11.442   0.111   5.963  0.00  0.00    +0.023 HD
ATOM     65  H   UNL A   1      -9.749  -0.287   6.286  0.00  0.00    +0.023 HD
ENDBRANCH  60  62
BRANCH  60  66
ATOM     66  C   UNL A   1     -11.042  -2.096   4.570  0.00  0.00    -0.061 C 
ATOM     67  H   UNL A   1     -10.878  -2.816   3.764  0.00  0.00    +0.023 HD
ATOM     68  H   UNL A   1     -10.596  -2.510   5.483  0.00  0.00    +0.023 HD
ATOM     69  H   UNL A   1     -12.115  -2.024   4.762  0.00  0.00    +0.023 HD
ENDBRANCH  60  66
ENDBRANCH  40  60
BRANCH  40  71
ATOM     70  N   UNL A   1      -7.146  -2.213   5.018  0.00  0.00    -0.196 NA
ATOM     71  C   UNL A   1      -7.996  -1.578   4.336  0.00  0.00    +0.074 C 
ENDBRANCH  40  71
ENDBRANCH  37  40
ENDBRANCH   1  37
TORSDOF 21
ENDMDL
MODEL 4
REMARK VINA RESULT:    -6.641      1.914      2.983
REMARK INTER + INTRA:         -14.846
REMARK INTER:                 -13.274
REMARK INTRA:                  -1.572
REMARK UNBOUND:                -1.412
REMARK  Name = 2520
REMARK  21 active torsions:
REMARK  status: ('A' for Active; 'I' for Inactive)
REMARK    1  A    between atoms: O_1  and  C_19
REMARK    2  A    between atoms: O_1  and  C_28
REMARK    3  A    between atoms: O_2  and  C_23
REMARK    4  A    between atoms: O_2  and  C_31
REMARK    5  A    between atoms: O_3  and  C_27
REMARK    6  A    between atoms: O_3  and  C_32
REMARK    7  A    between atoms: O_4  and  C_30
REMARK    8  A    between atoms: O_4  and  C_33
REMARK    9  A    between atoms: N_5  and  C_12
REMARK   10  A    between atoms: N_5  and  C_18
REMARK   11  A    between atoms: N_5  and  C_20
REMARK   12  A    between atoms: C_7  and  C_8
REMARK   13  A    between atoms: C_7  and  C_9
REMARK   14  A    between atoms: C_7  and  C_11
REMARK   15  A    between atoms: C_7  and  C_15
REMARK   16  A    between atoms: C_8  and  C_13
REMARK   17  A    between atoms: C_8  and  C_14
REMARK   18  A    between atoms: C_9  and  C_10
REMARK   19  A    between atoms: C_10  and  C_12
REMARK   20  A    between atoms: C_18  and  C_22
REMARK   21  A    between atoms: C_22  and  C_24
REMARK                            x       y       z     vdW  Elec       q    Type
REMARK                         _______ _______ _______ _____ _____    ______ ____
ROOT
ATOM      1  C   UNL A   1      -5.873  -1.878   1.136  0.00  0.00    -0.038 C 
ATOM      2  H   UNL A   1      -6.644  -2.369   0.534  0.00  0.00    +0.028 HD
ATOM      3  H   UNL A   1      -5.660  -0.910   0.676  0.00  0.00    +0.028 HD
ENDROOT
BRANCH   1   4
ATOM      4  C   UNL A   1      -4.587  -2.739   1.052  0.00  0.00    -0.001 C 
ATOM      5  H   UNL A   1      -4.095  -2.796   2.032  0.00  0.00    +0.043 HD
ATOM      6  H   UNL A   1      -4.907  -3.761   0.809  0.00  0.00    +0.043 HD
BRANCH   4   7
ATOM      7  N   UNL A   1      -3.626  -2.268   0.011  0.00  0.00    -0.305 NA
BRANCH   7   8
ATOM      8  C   UNL A   1      -3.041  -3.417  -0.689  0.00  0.00    -0.013 C 
ATOM      9  H   UNL A   1      -3.600  -3.687  -1.593  0.00  0.00    +0.039 HD
ATOM     10  H   UNL A   1      -2.003  -3.213  -0.975  0.00  0.00    +0.039 HD
ATOM     11  H   UNL A   1      -2.988  -4.292  -0.033  0.00  0.00    +0.039 HD
ENDBRANCH   7   8
BRANCH   7  12
ATOM     12  C   UNL A   1      -2.583  -1.365   0.580  0.00  0.00    +0.003 C 
ATOM     13  H   UNL A   1      -3.039  -0.836   1.422  0.00  0.00    +0.043 HD
ATOM     14  H   UNL A   1      -1.762  -1.974   0.976  0.00  0.00    +0.043 HD
BRANCH  12  15
ATOM     15  C   UNL A   1      -1.962  -0.286  -0.361  0.00  0.00    -0.015 C 
ATOM     16  H   UNL A   1      -1.531   0.505   0.267  0.00  0.00    +0.033 HD
ATOM     17  H   UNL A   1      -1.142  -0.730  -0.939  0.00  0.00    +0.033 HD
BRANCH  15  18
ATOM     18  C   UNL A   1      -2.898   0.440  -1.325  0.00  0.00    -0.043 A 
ATOM     19  C   UNL A   1      -3.771   1.473  -0.941  0.00  0.00    -0.013 A 
ATOM     20  C   UNL A   1      -2.850   0.107  -2.686  0.00  0.00    -0.055 A 
ATOM     21  C   UNL A   1      -4.492   2.239  -1.887  0.00  0.00    +0.162 A 
ATOM     22  C   UNL A   1      -3.590   0.831  -3.627  0.00  0.00    -0.016 A 
ATOM     23  C   UNL A   1      -4.391   1.916  -3.248  0.00  0.00    +0.162 A 
ATOM     24  H   UNL A   1      -3.884   1.683   0.116  0.00  0.00    +0.066 HD
ATOM     25  H   UNL A   1      -2.220  -0.710  -3.034  0.00  0.00    +0.062 HD
ATOM     26  H   UNL A   1      -3.526   0.556  -4.679  0.00  0.00    +0.066 HD
BRANCH  23  27
ATOM     27  O   UNL A   1      -4.992   2.526  -4.321  0.00  0.00    -0.491 OA
BRANCH  27  28
ATOM     28  C   UNL A   1      -4.188   3.275  -5.226  0.00  0.00    +0.079 C 
ATOM     29  H   UNL A   1      -4.515   3.128  -6.259  0.00  0.00    +0.066 HD
ATOM     30  H   UNL A   1      -4.146   4.334  -4.950  0.00  0.00    +0.066 HD
ATOM     31  H   UNL A   1      -3.167   2.885  -5.163  0.00  0.00    +0.066 HD
ENDBRANCH  27  28
ENDBRANCH  23  27
BRANCH  21  32
ATOM     32  O   UNL A   1      -5.289   3.294  -1.540  0.00  0.00    -0.491 OA
BRANCH  32  33
ATOM     33  C   UNL A   1      -5.608   3.514  -0.175  0.00  0.00    +0.079 C 
ATOM     34  H   UNL A   1      -5.928   4.549  -0.026  0.00  0.00    +0.066 HD
ATOM     35  H   UNL A   1      -6.353   2.807   0.207  0.00  0.00    +0.066 HD
ATOM     36  H   UNL A   1      -4.696   3.353   0.405  0.00  0.00    +0.066 HD
ENDBRANCH  32  33
ENDBRANCH  21  32
ENDBRANCH  15  18
ENDBRANCH  12  15
ENDBRANCH   7  12
ENDBRANCH   4   7
ENDBRANCH   1   4
BRANCH   1  37
ATOM     37  C   UNL A   1      -6.417  -1.654   2.587  0.00  0.00    -0.029 C 
ATOM     38  H   UNL A   1      -6.706  -0.597   2.676  0.00  0.00    +0.028 HD
ATOM     39  H   UNL A   1      -5.591  -1.767   3.300  0.00  0.00    +0.028 HD
BRANCH  37  40
ATOM     40  C   UNL A   1      -7.659  -2.594   3.042  0.00  0.00    +0.085 C 
BRANCH  40  41
ATOM     41  C   UNL A   1      -8.744  -1.570   3.486  0.00  0.00    -0.024 A 
ATOM     42  C   UNL A   1      -8.741  -0.275   2.922  0.00  0.00    -0.012 A 
ATOM     43  C   UNL A   1      -9.840  -1.896   4.299  0.00  0.00    -0.053 A 
ATOM     44  C   UNL A   1      -9.798   0.634   3.094  0.00  0.00    +0.162 A 
ATOM     45  C   UNL A   1     -10.858  -0.969   4.546  0.00  0.00    -0.016 A 
ATOM     46  C   UNL A   1     -10.846   0.298   3.956  0.00  0.00    +0.162 A 
ATOM     47  H   UNL A   1      -7.904   0.019   2.291  0.00  0.00    +0.066 HD
ATOM     48  H   UNL A   1      -9.961  -2.883   4.737  0.00  0.00    +0.062 HD
ATOM     49  H   UNL A   1     -11.692  -1.251   5.187  0.00  0.00    +0.066 HD
BRANCH  44  50
ATOM     50  O   UNL A   1      -9.837   1.827   2.421  0.00  0.00    -0.491 OA
BRANCH  50  51
ATOM     51  C   UNL A   1      -8.572   2.463   2.249  0.00  0.00    +0.079 C 
ATOM     52  H   UNL A   1      -7.846   1.953   2.888  0.00  0.00    +0.066 HD
ATOM     53  H   UNL A   1      -8.225   2.367   1.214  0.00  0.00    +0.066 HD
ATOM     54  H   UNL A   1      -8.600   3.518   2.553  0.00  0.00    +0.066 HD
ENDBRANCH  50  51
ENDBRANCH  44  50
BRANCH  46  55
ATOM     55  O   UNL A   1     -11.962   1.042   4.239  0.00  0.00    -0.491 OA
BRANCH  55  56
ATOM     56  C   UNL A   1     -13.015   0.989   3.285  0.00  0.00    +0.079 C 
ATOM     57  H   UNL A   1     -13.809   1.712   3.504  0.00  0.00    +0.066 HD
ATOM     58  H   UNL A   1     -12.627   1.111   2.271  0.00  0.00    +0.066 HD
ATOM     59  H   UNL A   1     -13.456  -0.012   3.341  0.00  0.00    +0.066 HD
ENDBRANCH  55  56
ENDBRANCH  46  55
ENDBRANCH  40  41
BRANCH  40  60
ATOM     60  C   UNL A   1      -8.076  -3.519   1.831  0.00  0.00    -0.024 C 
ATOM     61  H   UNL A   1      -7.198  -3.643   1.183  0.00  0.00    +0.031 HD
BRANCH  60  62
ATOM     62  C   UNL A   1      -9.190  -2.963   0.932  0.00  0.00    -0.061 C 
ATOM     63  H   UNL A   1      -8.802  -2.352   0.108  0.00  0.00    +0.023 HD
ATOM     64  H   UNL A   1      -9.739  -3.789   0.466  0.00  0.00    +0.023 HD
ATOM     65  H   UNL A   1      -9.904  -2.357   1.493  0.00  0.00    +0.023 HD
ENDBRANCH  60  62
BRANCH  60  66
ATOM     66  C   UNL A   1      -8.479  -4.948   2.241  0.00  0.00    -0.061 C 
ATOM     67  H   UNL A   1      -9.330  -4.945   2.928  0.00  0.00    +0.023 HD
ATOM     68  H   UNL A   1      -8.766  -5.530   1.356  0.00  0.00    +0.023 HD
ATOM     69  H   UNL A   1      -7.654  -5.491   2.708  0.00  0.00    +0.023 HD
ENDBRANCH  60  66
ENDBRANCH  40  60
BRANCH  40  71
ATOM     70  N   UNL A   1      -6.853  -4.079   5.251  0.00  0.00    -0.196 NA
ATOM     71  C   UNL A   1      -7.218  -3.405   4.249  0.00  0.00    +0.074 C 
ENDBRANCH  40  71
ENDBRANCH  37  40
ENDBRANCH   1  37
TORSDOF 21
ENDMDL
MODEL 5
REMARK VINA RESULT:    -6.616      2.014      3.669
REMARK INTER + INTRA:         -14.797
REMARK INTER:                 -12.599
REMARK INTRA:                  -2.198
REMARK UNBOUND:                -1.412
REMARK  Name = 2520
REMARK  21 active torsions:
REMARK  status: ('A' for Active; 'I' for Inactive)
REMARK    1  A    between atoms: O_1  and  C_19
REMARK    2  A    between atoms: O_1  and  C_28
REMARK    3  A    between atoms: O_2  and  C_23
REMARK    4  A    between atoms: O_2  and  C_31
REMARK    5  A    between atoms: O_3  and  C_27
REMARK    6  A    between atoms: O_3  and  C_32
REMARK    7  A    between atoms: O_4  and  C_30
REMARK    8  A    between atoms: O_4  and  C_33
REMARK    9  A    between atoms: N_5  and  C_12
REMARK   10  A    between atoms: N_5  and  C_18
REMARK   11  A    between atoms: N_5  and  C_20
REMARK   12  A    between atoms: C_7  and  C_8
REMARK   13  A    between atoms: C_7  and  C_9
REMARK   14  A    between atoms: C_7  and  C_11
REMARK   15  A    between atoms: C_7  and  C_15
REMARK   16  A    between atoms: C_8  and  C_13
REMARK   17  A    between atoms: C_8  and  C_14
REMARK   18  A    between atoms: C_9  and  C_10
REMARK   19  A    between atoms: C_10  and  C_12
REMARK   20  A    between atoms: C_18  and  C_22
REMARK   21  A    between atoms: C_22  and  C_24
REMARK                            x       y       z     vdW  Elec       q    Type
REMARK                         _______ _______ _______ _____ _____    ______ ____
ROOT
ATOM      1  C   UNL A   1      -8.131  -3.818   3.213  0.00  0.00    -0.038 C 
ATOM      2  H   UNL A   1      -7.463  -3.362   3.950  0.00  0.00    +0.028 HD
ATOM      3  H   UNL A   1      -7.984  -4.900   3.257  0.00  0.00    +0.028 HD
ENDROOT
BRANCH   1   4
ATOM      4  C   UNL A   1      -7.686  -3.333   1.809  0.00  0.00    -0.001 C 
ATOM      5  H   UNL A   1      -7.821  -4.129   1.064  0.00  0.00    +0.043 HD
ATOM      6  H   UNL A   1      -8.370  -2.523   1.523  0.00  0.00    +0.043 HD
BRANCH   4   7
ATOM      7  N   UNL A   1      -6.283  -2.820   1.777  0.00  0.00    -0.305 NA
BRANCH   7   8
ATOM      8  C   UNL A   1      -5.398  -3.818   1.166  0.00  0.00    -0.013 C 
ATOM      9  H   UNL A   1      -4.572  -3.363   0.608  0.00  0.00    +0.039 HD
ATOM     10  H   UNL A   1      -4.973  -4.483   1.927  0.00  0.00    +0.039 HD
ATOM     11  H   UNL A   1      -5.955  -4.479   0.492  0.00  0.00    +0.039 HD
ENDBRANCH   7   8
BRANCH   7  12
ATOM     12  C   UNL A   1      -5.810  -2.401   3.128  0.00  0.00    +0.003 C 
ATOM     13  H   UNL A   1      -6.591  -1.769   3.562  0.00  0.00    +0.043 HD
ATOM     14  H   UNL A   1      -5.710  -3.289   3.764  0.00  0.00    +0.043 HD
BRANCH  12  15
ATOM     15  C   UNL A   1      -4.471  -1.603   3.216  0.00  0.00    -0.015 C 
ATOM     16  H   UNL A   1      -4.485  -1.018   4.145  0.00  0.00    +0.033 HD
ATOM     17  H   UNL A   1      -3.630  -2.304   3.281  0.00  0.00    +0.033 HD
BRANCH  15  18
ATOM     18  C   UNL A   1      -4.175  -0.588   2.113  0.00  0.00    -0.043 A 
ATOM     19  C   UNL A   1      -3.355  -0.855   1.003  0.00  0.00    -0.013 A 
ATOM     20  C   UNL A   1      -4.800   0.665   2.170  0.00  0.00    -0.055 A 
ATOM     21  C   UNL A   1      -3.245   0.045  -0.084  0.00  0.00    +0.162 A 
ATOM     22  C   UNL A   1      -4.666   1.580   1.120  0.00  0.00    -0.016 A 
ATOM     23  C   UNL A   1      -3.917   1.274  -0.024  0.00  0.00    +0.162 A 
ATOM     24  H   UNL A   1      -2.797  -1.783   0.987  0.00  0.00    +0.066 HD
ATOM     25  H   UNL A   1      -5.415   0.939   3.025  0.00  0.00    +0.062 HD
ATOM     26  H   UNL A   1      -5.170   2.544   1.186  0.00  0.00    +0.066 HD
BRANCH  23  27
ATOM     27  O   UNL A   1      -3.952   2.279  -0.960  0.00  0.00    -0.491 OA
BRANCH  27  28
ATOM     28  C   UNL A   1      -4.225   3.608  -0.532  0.00  0.00    +0.079 C 
ATOM     29  H   UNL A   1      -4.188   3.688   0.557  0.00  0.00    +0.066 HD
ATOM     30  H   UNL A   1      -3.569   4.335  -1.026  0.00  0.00    +0.066 HD
ATOM     31  H   UNL A   1      -5.251   3.848  -0.829  0.00  0.00    +0.066 HD
ENDBRANCH  27  28
ENDBRANCH  23  27
BRANCH  21  32
ATOM     32  O   UNL A   1      -2.511  -0.226  -1.204  0.00  0.00    -0.491 OA
BRANCH  32  33
ATOM     33  C   UNL A   1      -2.127  -1.563  -1.486  0.00  0.00    +0.079 C 
ATOM     34  H   UNL A   1      -1.809  -1.651  -2.529  0.00  0.00    +0.066 HD
ATOM     35  H   UNL A   1      -1.359  -1.939  -0.801  0.00  0.00    +0.066 HD
ATOM     36  H   UNL A   1      -3.009  -2.194  -1.346  0.00  0.00    +0.066 HD
ENDBRANCH  32  33
ENDBRANCH  21  32
ENDBRANCH  15  18
ENDBRANCH  12  15
ENDBRANCH   7  12
ENDBRANCH   4   7
ENDBRANCH   1   4
BRANCH   1  37
ATOM     37  C   UNL A   1      -9.615  -3.479   3.581  0.00  0.00    -0.029 C 
ATOM     38  H   UNL A   1     -10.082  -4.399   3.962  0.00  0.00    +0.028 HD
ATOM     39  H   UNL A   1     -10.170  -3.257   2.661  0.00  0.00    +0.028 HD
BRANCH  37  40
ATOM     40  C   UNL A   1      -9.833  -2.279   4.650  0.00  0.00    +0.085 C 
BRANCH  40  41
ATOM     41  C   UNL A   1      -9.660  -0.993   3.791  0.00  0.00    -0.024 A 
ATOM     42  C   UNL A   1     -10.801  -0.383   3.226  0.00  0.00    -0.012 A 
ATOM     43  C   UNL A   1      -8.451  -0.292   3.668  0.00  0.00    -0.053 A 
ATOM     44  C   UNL A   1     -10.771   0.887   2.627  0.00  0.00    +0.162 A 
ATOM     45  C   UNL A   1      -8.392   0.936   3.000  0.00  0.00    -0.016 A 
ATOM     46  C   UNL A   1      -9.540   1.532   2.471  0.00  0.00    +0.162 A 
ATOM     47  H   UNL A   1     -11.758  -0.900   3.294  0.00  0.00    +0.066 HD
ATOM     48  H   UNL A   1      -7.527  -0.651   4.113  0.00  0.00    +0.062 HD
ATOM     49  H   UNL A   1      -7.436   1.452   2.917  0.00  0.00    +0.066 HD
BRANCH  44  50
ATOM     50  O   UNL A   1     -11.917   1.516   2.216  0.00  0.00    -0.491 OA
BRANCH  50  51
ATOM     51  C   UNL A   1     -13.128   0.934   2.693  0.00  0.00    +0.079 C 
ATOM     52  H   UNL A   1     -13.231  -0.055   2.238  0.00  0.00    +0.066 HD
ATOM     53  H   UNL A   1     -13.092   0.795   3.779  0.00  0.00    +0.066 HD
ATOM     54  H   UNL A   1     -14.007   1.526   2.406  0.00  0.00    +0.066 HD
ENDBRANCH  50  51
ENDBRANCH  44  50
BRANCH  46  55
ATOM     55  O   UNL A   1      -9.312   2.769   1.928  0.00  0.00    -0.491 OA
BRANCH  55  56
ATOM     56  C   UNL A   1      -7.957   3.194   1.869  0.00  0.00    +0.079 C 
ATOM     57  H   UNL A   1      -7.711   3.662   0.909  0.00  0.00    +0.066 HD
ATOM     58  H   UNL A   1      -7.720   3.851   2.710  0.00  0.00    +0.066 HD
ATOM     59  H   UNL A   1      -7.330   2.303   1.972  0.00  0.00    +0.066 HD
ENDBRANCH  55  56
ENDBRANCH  46  55
ENDBRANCH  40  41
BRANCH  40  60
ATOM     60  C   UNL A   1     -11.252  -2.441   5.325  0.00  0.00    -0.024 C 
ATOM     61  H   UNL A   1     -11.948  -1.762   4.814  0.00  0.00    +0.031 HD
BRANCH  60  62
ATOM     62  C   UNL A   1     -11.319  -2.070   6.814  0.00  0.00    -0.061 C 
ATOM     63  H   UNL A   1     -11.708  -1.059   6.981  0.00  0.00    +0.023 HD
ATOM     64  H   UNL A   1     -12.001  -2.750   7.337  0.00  0.00    +0.023 HD
ATOM     65  H   UNL A   1     -10.341  -2.137   7.295  0.00  0.00    +0.023 HD
ENDBRANCH  60  62
BRANCH  60  66
ATOM     66  C   UNL A   1     -11.869  -3.843   5.167  0.00  0.00    -0.061 C 
ATOM     67  H   UNL A   1     -12.960  -3.800   5.118  0.00  0.00    +0.023 HD
ATOM     68  H   UNL A   1     -11.511  -4.314   4.243  0.00  0.00    +0.023 HD
ATOM     69  H   UNL A   1     -11.581  -4.513   5.981  0.00  0.00    +0.023 HD
ENDBRANCH  60  66
ENDBRANCH  40  60
BRANCH  40  71
ATOM     70  N   UNL A   1      -7.777  -2.407   6.520  0.00  0.00    -0.196 NA
ATOM     71  C   UNL A   1      -8.710  -2.349   5.672  0.00  0.00    +0.074 C 
ENDBRANCH  40  71
ENDBRANCH  37  40
ENDBRANCH   1  37
TORSDOF 21
ENDMDL
MODEL 6
REMARK VINA RESULT:    -6.072      3.381      5.730
REMARK INTER + INTRA:         -13.696
REMARK INTER:                 -12.933
REMARK INTRA:                  -0.762
REMARK UNBOUND:                -1.412
REMARK  Name = 2520
REMARK  21 active torsions:
REMARK  status: ('A' for Active; 'I' for Inactive)
REMARK    1  A    between atoms: O_1  and  C_19
REMARK    2  A    between atoms: O_1  and  C_28
REMARK    3  A    between atoms: O_2  and  C_23
REMARK    4  A    between atoms: O_2  and  C_31
REMARK    5  A    between atoms: O_3  and  C_27
REMARK    6  A    between atoms: O_3  and  C_32
REMARK    7  A    between atoms: O_4  and  C_30
REMARK    8  A    between atoms: O_4  and  C_33
REMARK    9  A    between atoms: N_5  and  C_12
REMARK   10  A    between atoms: N_5  and  C_18
REMARK   11  A    between atoms: N_5  and  C_20
REMARK   12  A    between atoms: C_7  and  C_8
REMARK   13  A    between atoms: C_7  and  C_9
REMARK   14  A    between atoms: C_7  and  C_11
REMARK   15  A    between atoms: C_7  and  C_15
REMARK   16  A    between atoms: C_8  and  C_13
REMARK   17  A    between atoms: C_8  and  C_14
REMARK   18  A    between atoms: C_9  and  C_10
REMARK   19  A    between atoms: C_10  and  C_12
REMARK   20  A    between atoms: C_18  and  C_22
REMARK   21  A    between atoms: C_22  and  C_24
REMARK                            x       y       z     vdW  Elec       q    Type
REMARK                         _______ _______ _______ _____ _____    ______ ____
ROOT
ATOM      1  C   UNL A   1      -8.662  -2.676   3.365  0.00  0.00    -0.038 C 
ATOM      2  H   UNL A   1      -8.592  -1.588   3.271  0.00  0.00    +0.028 HD
ATOM      3  H   UNL A   1      -7.914  -2.994   4.096  0.00  0.00    +0.028 HD
ENDROOT
BRANCH   1   4
ATOM      4  C   UNL A   1      -8.282  -3.294   1.995  0.00  0.00    -0.001 C 
ATOM      5  H   UNL A   1      -9.140  -3.822   1.557  0.00  0.00    +0.043 HD
ATOM      6  H   UNL A   1      -8.060  -2.456   1.321  0.00  0.00    +0.043 HD
BRANCH   4   7
ATOM      7  N   UNL A   1      -7.093  -4.196   2.061  0.00  0.00    -0.305 NA
BRANCH   7   8
ATOM      8  C   UNL A   1      -7.493  -5.516   2.560  0.00  0.00    -0.013 C 
ATOM      9  H   UNL A   1      -7.092  -5.728   3.558  0.00  0.00    +0.039 HD
ATOM     10  H   UNL A   1      -8.585  -5.604   2.603  0.00  0.00    +0.039 HD
ATOM     11  H   UNL A   1      -7.172  -6.309   1.876  0.00  0.00    +0.039 HD
ENDBRANCH   7   8
BRANCH   7  12
ATOM     12  C   UNL A   1      -5.985  -3.603   2.865  0.00  0.00    +0.003 C 
ATOM     13  H   UNL A   1      -6.378  -3.420   3.870  0.00  0.00    +0.043 HD
ATOM     14  H   UNL A   1      -5.175  -4.336   2.953  0.00  0.00    +0.043 HD
BRANCH  12  15
ATOM     15  C   UNL A   1      -5.360  -2.263   2.365  0.00  0.00    -0.015 C 
ATOM     16  H   UNL A   1      -6.180  -1.598   2.060  0.00  0.00    +0.033 HD
ATOM     17  H   UNL A   1      -4.830  -1.774   3.192  0.00  0.00    +0.033 HD
BRANCH  15  18
ATOM     18  C   UNL A   1      -4.427  -2.321   1.156  0.00  0.00    -0.043 A 
ATOM     19  C   UNL A   1      -3.560  -1.279   0.786  0.00  0.00    -0.013 A 
ATOM     20  C   UNL A   1      -4.381  -3.500   0.401  0.00  0.00    -0.055 A 
ATOM     21  C   UNL A   1      -2.588  -1.435  -0.231  0.00  0.00    +0.162 A 
ATOM     22  C   UNL A   1      -3.452  -3.652  -0.634  0.00  0.00    -0.016 A 
ATOM     23  C   UNL A   1      -2.531  -2.642  -0.942  0.00  0.00    +0.162 A 
ATOM     24  H   UNL A   1      -3.645  -0.331   1.304  0.00  0.00    +0.066 HD
ATOM     25  H   UNL A   1      -5.057  -4.325   0.620  0.00  0.00    +0.062 HD
ATOM     26  H   UNL A   1      -3.432  -4.583  -1.199  0.00  0.00    +0.066 HD
BRANCH  23  27
ATOM     27  O   UNL A   1      -1.672  -3.003  -1.950  0.00  0.00    -0.491 OA
BRANCH  27  28
ATOM     28  C   UNL A   1      -2.114  -2.907  -3.299  0.00  0.00    +0.079 C 
ATOM     29  H   UNL A   1      -3.105  -2.449  -3.359  0.00  0.00    +0.066 HD
ATOM     30  H   UNL A   1      -1.380  -2.395  -3.931  0.00  0.00    +0.066 HD
ATOM     31  H   UNL A   1      -2.217  -3.926  -3.687  0.00  0.00    +0.066 HD
ENDBRANCH  27  28
ENDBRANCH  23  27
BRANCH  21  32
ATOM     32  O   UNL A   1      -1.688  -0.460  -0.558  0.00  0.00    -0.491 OA
BRANCH  32  33
ATOM     33  C   UNL A   1      -2.078   0.595  -1.424  0.00  0.00    +0.079 C 
ATOM     34  H   UNL A   1      -1.224   0.925  -2.023  0.00  0.00    +0.066 HD
ATOM     35  H   UNL A   1      -2.932   0.333  -2.057  0.00  0.00    +0.066 HD
ATOM     36  H   UNL A   1      -2.397   1.433  -0.797  0.00  0.00    +0.066 HD
ENDBRANCH  32  33
ENDBRANCH  21  32
ENDBRANCH  15  18
ENDBRANCH  12  15
ENDBRANCH   7  12
ENDBRANCH   4   7
ENDBRANCH   1   4
BRANCH   1  37
ATOM     37  C   UNL A   1     -10.089  -3.058   3.882  0.00  0.00    -0.029 C 
ATOM     38  H   UNL A   1     -10.091  -4.139   4.087  0.00  0.00    +0.028 HD
ATOM     39  H   UNL A   1     -10.810  -2.939   3.064  0.00  0.00    +0.028 HD
BRANCH  37  40
ATOM     40  C   UNL A   1     -10.617  -2.258   5.191  0.00  0.00    +0.085 C 
BRANCH  40  41
ATOM     41  C   UNL A   1     -11.558  -3.283   5.887  0.00  0.00    -0.024 A 
ATOM     42  C   UNL A   1     -11.926  -3.076   7.234  0.00  0.00    -0.012 A 
ATOM     43  C   UNL A   1     -12.208  -4.330   5.215  0.00  0.00    -0.053 A 
ATOM     44  C   UNL A   1     -12.934  -3.817   7.874  0.00  0.00    +0.162 A 
ATOM     45  C   UNL A   1     -13.153  -5.130   5.866  0.00  0.00    -0.016 A 
ATOM     46  C   UNL A   1     -13.520  -4.889   7.193  0.00  0.00    +0.162 A 
ATOM     47  H   UNL A   1     -11.439  -2.278   7.793  0.00  0.00    +0.066 HD
ATOM     48  H   UNL A   1     -12.033  -4.538   4.163  0.00  0.00    +0.062 HD
ATOM     49  H   UNL A   1     -13.635  -5.938   5.318  0.00  0.00    +0.066 HD
BRANCH  44  50
ATOM     50  O   UNL A   1     -13.370  -3.501   9.134  0.00  0.00    -0.491 OA
BRANCH  50  51
ATOM     51  C   UNL A   1     -13.774  -2.144   9.308  0.00  0.00    +0.079 C 
ATOM     52  H   UNL A   1     -13.542  -1.601   8.389  0.00  0.00    +0.066 HD
ATOM     53  H   UNL A   1     -14.856  -2.078   9.467  0.00  0.00    +0.066 HD
ATOM     54  H   UNL A   1     -13.230  -1.658  10.129  0.00  0.00    +0.066 HD
ENDBRANCH  50  51
ENDBRANCH  44  50
BRANCH  46  55
ATOM     55  O   UNL A   1     -14.519  -5.712   7.641  0.00  0.00    -0.491 OA
BRANCH  55  56
ATOM     56  C   UNL A   1     -15.086  -6.599   6.685  0.00  0.00    +0.079 C 
ATOM     57  H   UNL A   1     -14.323  -7.181   6.156  0.00  0.00    +0.066 HD
ATOM     58  H   UNL A   1     -15.835  -7.244   7.152  0.00  0.00    +0.066 HD
ATOM     59  H   UNL A   1     -15.608  -5.987   5.942  0.00  0.00    +0.066 HD
ENDBRANCH  55  56
ENDBRANCH  46  55
ENDBRANCH  40  41
BRANCH  40  60
ATOM     60  C   UNL A   1      -9.374  -1.805   6.055  0.00  0.00    -0.024 C 
ATOM     61  H   UNL A   1      -8.524  -1.664   5.375  0.00  0.00    +0.031 HD
BRANCH  60  62
ATOM     62  C   UNL A   1      -8.906  -2.815   7.113  0.00  0.00    -0.061 C 
ATOM     63  H   UNL A   1      -8.453  -2.333   7.987  0.00  0.00    +0.023 HD
ATOM     64  H   UNL A   1      -9.763  -3.385   7.489  0.00  0.00    +0.023 HD
ATOM     65  H   UNL A   1      -8.182  -3.525   6.708  0.00  0.00    +0.023 HD
ENDBRANCH  60  62
BRANCH  60  66
ATOM     66  C   UNL A   1      -9.557  -0.447   6.757  0.00  0.00    -0.061 C 
ATOM     67  H   UNL A   1     -10.598  -0.112   6.722  0.00  0.00    +0.023 HD
ATOM     68  H   UNL A   1      -9.266  -0.523   7.812  0.00  0.00    +0.023 HD
ATOM     69  H   UNL A   1      -8.924   0.330   6.322  0.00  0.00    +0.023 HD
ENDBRANCH  60  66
ENDBRANCH  40  60
BRANCH  40  71
ATOM     70  N   UNL A   1     -12.122  -0.086   4.323  0.00  0.00    -0.196 NA
ATOM     71  C   UNL A   1     -11.439  -1.071   4.717  0.00  0.00    +0.074 C 
ENDBRANCH  40  71
ENDBRANCH  37  40
ENDBRANCH   1  37
TORSDOF 21
ENDMDL
MODEL 7
REMARK VINA RESULT:    -5.968      3.152      9.253
REMARK INTER + INTRA:         -13.485
REMARK INTER:                 -12.185
REMARK INTRA:                  -1.300
REMARK UNBOUND:                -1.412
REMARK  Name = 2520
REMARK  21 active torsions:
REMARK  status: ('A' for Active; 'I' for Inactive)
REMARK    1  A    between atoms: O_1  and  C_19
REMARK    2  A    between atoms: O_1  and  C_28
REMARK    3  A    between atoms: O_2  and  C_23
REMARK    4  A    between atoms: O_2  and  C_31
REMARK    5  A    between atoms: O_3  and  C_27
REMARK    6  A    between atoms: O_3  and  C_32
REMARK    7  A    between atoms: O_4  and  C_30
REMARK    8  A    between atoms: O_4  and  C_33
REMARK    9  A    between atoms: N_5  and  C_12
REMARK   10  A    between atoms: N_5  and  C_18
REMARK   11  A    between atoms: N_5  and  C_20
REMARK   12  A    between atoms: C_7  and  C_8
REMARK   13  A    between atoms: C_7  and  C_9
REMARK   14  A    between atoms: C_7  and  C_11
REMARK   15  A    between atoms: C_7  and  C_15
REMARK   16  A    between atoms: C_8  and  C_13
REMARK   17  A    between atoms: C_8  and  C_14
REMARK   18  A    between atoms: C_9  and  C_10
REMARK   19  A    between atoms: C_10  and  C_12
REMARK   20  A    between atoms: C_18  and  C_22
REMARK   21  A    between atoms: C_22  and  C_24
REMARK                            x       y       z     vdW  Elec       q    Type
REMARK                         _______ _______ _______ _____ _____    ______ ____
ROOT
ATOM      1  C   UNL A   1      -8.944  -0.704   2.714  0.00  0.00    -0.038 C 
ATOM      2  H   UNL A   1      -8.791   0.346   2.982  0.00  0.00    +0.028 HD
ATOM      3  H   UNL A   1      -9.225  -0.738   1.658  0.00  0.00    +0.028 HD
ENDROOT
BRANCH   1   4
ATOM      4  C   UNL A   1     -10.141  -1.234   3.544  0.00  0.00    -0.001 C 
ATOM      5  H   UNL A   1     -11.075  -1.156   2.970  0.00  0.00    +0.043 HD
ATOM      6  H   UNL A   1      -9.965  -2.306   3.702  0.00  0.00    +0.043 HD
BRANCH   4   7
ATOM      7  N   UNL A   1     -10.285  -0.562   4.870  0.00  0.00    -0.305 NA
BRANCH   7   8
ATOM      8  C   UNL A   1      -9.710   0.786   4.814  0.00  0.00    -0.013 C 
ATOM      9  H   UNL A   1     -10.455   1.570   4.994  0.00  0.00    +0.039 HD
ATOM     10  H   UNL A   1      -8.907   0.900   5.552  0.00  0.00    +0.039 HD
ATOM     11  H   UNL A   1      -9.233   0.971   3.846  0.00  0.00    +0.039 HD
ENDBRANCH   7   8
BRANCH   7  12
ATOM     12  C   UNL A   1      -9.704  -1.376   5.976  0.00  0.00    +0.003 C 
ATOM     13  H   UNL A   1      -8.621  -1.411   5.816  0.00  0.00    +0.043 HD
ATOM     14  H   UNL A   1      -9.882  -0.864   6.929  0.00  0.00    +0.043 HD
BRANCH  12  15
ATOM     15  C   UNL A   1     -10.193  -2.850   6.131  0.00  0.00    -0.015 C 
ATOM     16  H   UNL A   1     -10.436  -3.234   5.130  0.00  0.00    +0.033 HD
ATOM     17  H   UNL A   1      -9.379  -3.467   6.531  0.00  0.00    +0.033 HD
BRANCH  15  18
ATOM     18  C   UNL A   1     -11.448  -3.099   6.966  0.00  0.00    -0.043 A 
ATOM     19  C   UNL A   1     -12.267  -4.233   6.829  0.00  0.00    -0.013 A 
ATOM     20  C   UNL A   1     -11.778  -2.179   7.971  0.00  0.00    -0.055 A 
ATOM     21  C   UNL A   1     -13.318  -4.515   7.735  0.00  0.00    +0.162 A 
ATOM     22  C   UNL A   1     -12.840  -2.427   8.847  0.00  0.00    -0.016 A 
ATOM     23  C   UNL A   1     -13.599  -3.602   8.761  0.00  0.00    +0.162 A 
ATOM     24  H   UNL A   1     -12.078  -4.908   6.003  0.00  0.00    +0.066 HD
ATOM     25  H   UNL A   1     -11.201  -1.265   8.096  0.00  0.00    +0.062 HD
ATOM     26  H   UNL A   1     -13.069  -1.700   9.624  0.00  0.00    +0.066 HD
BRANCH  23  27
ATOM     27  O   UNL A   1     -14.557  -3.682   9.741  0.00  0.00    -0.491 OA
BRANCH  27  28
ATOM     28  C   UNL A   1     -14.881  -2.513  10.485  0.00  0.00    +0.079 C 
ATOM     29  H   UNL A   1     -15.522  -1.842   9.908  0.00  0.00    +0.066 HD
ATOM     30  H   UNL A   1     -15.309  -2.760  11.463  0.00  0.00    +0.066 HD
ATOM     31  H   UNL A   1     -13.948  -1.970  10.671  0.00  0.00    +0.066 HD
ENDBRANCH  27  28
ENDBRANCH  23  27
BRANCH  21  32
ATOM     32  O   UNL A   1     -14.079  -5.648   7.664  0.00  0.00    -0.491 OA
BRANCH  32  33
ATOM     33  C   UNL A   1     -14.530  -6.113   6.401  0.00  0.00    +0.079 C 
ATOM     34  H   UNL A   1     -13.811  -6.825   5.983  0.00  0.00    +0.066 HD
ATOM     35  H   UNL A   1     -15.538  -6.540   6.440  0.00  0.00    +0.066 HD
ATOM     36  H   UNL A   1     -14.580  -5.249   5.732  0.00  0.00    +0.066 HD
ENDBRANCH  32  33
ENDBRANCH  21  32
ENDBRANCH  15  18
ENDBRANCH  12  15
ENDBRANCH   7  12
ENDBRANCH   4   7
ENDBRANCH   1   4
BRANCH   1  37
ATOM     37  C   UNL A   1      -7.606  -1.490   2.920  0.00  0.00    -0.029 C 
ATOM     38  H   UNL A   1      -7.478  -1.653   4.000  0.00  0.00    +0.028 HD
ATOM     39  H   UNL A   1      -6.764  -0.843   2.644  0.00  0.00    +0.028 HD
BRANCH  37  40
ATOM     40  C   UNL A   1      -7.479  -2.907   2.140  0.00  0.00    +0.085 C 
BRANCH  40  41
ATOM     41  C   UNL A   1      -6.149  -2.765   1.344  0.00  0.00    -0.024 A 
ATOM     42  C   UNL A   1      -5.452  -1.537   1.381  0.00  0.00    -0.012 A 
ATOM     43  C   UNL A   1      -5.497  -3.835   0.712  0.00  0.00    -0.053 A 
ATOM     44  C   UNL A   1      -4.148  -1.383   0.881  0.00  0.00    +0.162 A 
ATOM     45  C   UNL A   1      -4.233  -3.673   0.136  0.00  0.00    -0.016 A 
ATOM     46  C   UNL A   1      -3.552  -2.454   0.208  0.00  0.00    +0.162 A 
ATOM     47  H   UNL A   1      -5.927  -0.680   1.857  0.00  0.00    +0.066 HD
ATOM     48  H   UNL A   1      -5.926  -4.832   0.676  0.00  0.00    +0.062 HD
ATOM     49  H   UNL A   1      -3.757  -4.522  -0.352  0.00  0.00    +0.066 HD
BRANCH  44  50
ATOM     50  O   UNL A   1      -3.442  -0.223   1.058  0.00  0.00    -0.491 OA
BRANCH  50  51
ATOM     51  C   UNL A   1      -3.631   0.758   0.040  0.00  0.00    +0.079 C 
ATOM     52  H   UNL A   1      -4.687   1.035   0.028  0.00  0.00    +0.066 HD
ATOM     53  H   UNL A   1      -3.054   1.663   0.259  0.00  0.00    +0.066 HD
ATOM     54  H   UNL A   1      -3.377   0.368  -0.955  0.00  0.00    +0.066 HD
ENDBRANCH  50  51
ENDBRANCH  44  50
BRANCH  46  55
ATOM     55  O   UNL A   1      -2.294  -2.499  -0.333  0.00  0.00    -0.491 OA
BRANCH  55  56
ATOM     56  C   UNL A   1      -2.200  -2.937  -1.682  0.00  0.00    +0.079 C 
ATOM     57  H   UNL A   1      -1.659  -2.224  -2.313  0.00  0.00    +0.066 HD
ATOM     58  H   UNL A   1      -1.760  -3.937  -1.735  0.00  0.00    +0.066 HD
ATOM     59  H   UNL A   1      -3.220  -3.016  -2.072  0.00  0.00    +0.066 HD
ENDBRANCH  55  56
ENDBRANCH  46  55
ENDBRANCH  40  41
BRANCH  40  60
ATOM     60  C   UNL A   1      -7.498  -4.081   3.197  0.00  0.00    -0.024 C 
ATOM     61  H   UNL A   1      -8.358  -3.925   3.860  0.00  0.00    +0.031 HD
BRANCH  60  62
ATOM     62  C   UNL A   1      -6.268  -4.161   4.113  0.00  0.00    -0.061 C 
ATOM     63  H   UNL A   1      -5.615  -5.008   3.873  0.00  0.00    +0.023 HD
ATOM     64  H   UNL A   1      -5.655  -3.261   3.992  0.00  0.00    +0.023 HD
ATOM     65  H   UNL A   1      -6.547  -4.239   5.166  0.00  0.00    +0.023 HD
ENDBRANCH  60  62
BRANCH  60  66
ATOM     66  C   UNL A   1      -7.710  -5.477   2.582  0.00  0.00    -0.061 C 
ATOM     67  H   UNL A   1      -8.742  -5.617   2.247  0.00  0.00    +0.023 HD
ATOM     68  H   UNL A   1      -7.055  -5.615   1.714  0.00  0.00    +0.023 HD
ATOM     69  H   UNL A   1      -7.459  -6.278   3.282  0.00  0.00    +0.023 HD
ENDBRANCH  60  66
ENDBRANCH  40  60
BRANCH  40  71
ATOM     70  N   UNL A   1      -9.595  -3.095   0.345  0.00  0.00    -0.196 NA
ATOM     71  C   UNL A   1      -8.635  -3.010   1.159  0.00  0.00    +0.074 C 
ENDBRANCH  40  71
ENDBRANCH  37  40
ENDBRANCH   1  37
TORSDOF 21
ENDMDL
MODEL 8
REMARK VINA RESULT:    -5.500     19.235     21.507
REMARK INTER + INTRA:         -12.538
REMARK INTER:                 -10.665
REMARK INTRA:                  -1.873
REMARK UNBOUND:                -1.412
REMARK  Name = 2520
REMARK  21 active torsions:
REMARK  status: ('A' for Active; 'I' for Inactive)
REMARK    1  A    between atoms: O_1  and  C_19
REMARK    2  A    between atoms: O_1  and  C_28
REMARK    3  A    between atoms: O_2  and  C_23
REMARK    4  A    between atoms: O_2  and  C_31
REMARK    5  A    between atoms: O_3  and  C_27
REMARK    6  A    between atoms: O_3  and  C_32
REMARK    7  A    between atoms: O_4  and  C_30
REMARK    8  A    between atoms: O_4  and  C_33
REMARK    9  A    between atoms: N_5  and  C_12
REMARK   10  A    between atoms: N_5  and  C_18
REMARK   11  A    between atoms: N_5  and  C_20
REMARK   12  A    between atoms: C_7  and  C_8
REMARK   13  A    between atoms: C_7  and  C_9
REMARK   14  A    between atoms: C_7  and  C_11
REMARK   15  A    between atoms: C_7  and  C_15
REMARK   16  A    between atoms: C_8  and  C_13
REMARK   17  A    between atoms: C_8  and  C_14
REMARK   18  A    between atoms: C_9  and  C_10
REMARK   19  A    between atoms: C_10  and  C_12
REMARK   20  A    between atoms: C_18  and  C_22
REMARK   21  A    between atoms: C_22  and  C_24
REMARK                            x       y       z     vdW  Elec       q    Type
REMARK                         _______ _______ _______ _____ _____    ______ ____
ROOT
ATOM      1  C   UNL A   1     -12.346  -4.146 -18.166  0.00  0.00    -0.038 C 
ATOM      2  H   UNL A   1     -11.578  -4.800 -17.743  0.00  0.00    +0.028 HD
ATOM      3  H   UNL A   1     -13.177  -4.108 -17.457  0.00  0.00    +0.028 HD
ENDROOT
BRANCH   1   4
ATOM      4  C   UNL A   1     -12.863  -4.807 -19.470  0.00  0.00    -0.001 C 
ATOM      5  H   UNL A   1     -12.899  -4.075 -20.288  0.00  0.00    +0.043 HD
ATOM      6  H   UNL A   1     -12.116  -5.558 -19.761  0.00  0.00    +0.043 HD
BRANCH   4   7
ATOM      7  N   UNL A   1     -14.189  -5.476 -19.309  0.00  0.00    -0.305 NA
BRANCH   7   8
ATOM      8  C   UNL A   1     -14.639  -6.013 -20.598  0.00  0.00    -0.013 C 
ATOM      9  H   UNL A   1     -15.664  -6.399 -20.558  0.00  0.00    +0.039 HD
ATOM     10  H   UNL A   1     -14.592  -5.245 -21.379  0.00  0.00    +0.039 HD
ATOM     11  H   UNL A   1     -13.975  -6.812 -20.945  0.00  0.00    +0.039 HD
ENDBRANCH   7   8
BRANCH   7  12
ATOM     12  C   UNL A   1     -15.201  -4.570 -18.692  0.00  0.00    +0.003 C 
ATOM     13  H   UNL A   1     -14.914  -4.431 -17.645  0.00  0.00    +0.043 HD
ATOM     14  H   UNL A   1     -15.151  -3.591 -19.183  0.00  0.00    +0.043 HD
BRANCH  12  15
ATOM     15  C   UNL A   1     -16.692  -5.031 -18.703  0.00  0.00    -0.015 C 
ATOM     16  H   UNL A   1     -17.137  -4.722 -19.659  0.00  0.00    +0.033 HD
ATOM     17  H   UNL A   1     -16.739  -6.126 -18.657  0.00  0.00    +0.033 HD
BRANCH  15  18
ATOM     18  C   UNL A   1     -17.621  -4.460 -17.632  0.00  0.00    -0.043 A 
ATOM     19  C   UNL A   1     -18.589  -5.216 -16.951  0.00  0.00    -0.013 A 
ATOM     20  C   UNL A   1     -17.466  -3.118 -17.257  0.00  0.00    -0.055 A 
ATOM     21  C   UNL A   1     -19.307  -4.699 -15.846  0.00  0.00    +0.162 A 
ATOM     22  C   UNL A   1     -18.200  -2.583 -16.194  0.00  0.00    -0.016 A 
ATOM     23  C   UNL A   1     -19.101  -3.367 -15.461  0.00  0.00    +0.162 A 
ATOM     24  H   UNL A   1     -18.781  -6.228 -17.287  0.00  0.00    +0.066 HD
ATOM     25  H   UNL A   1     -16.758  -2.476 -17.778  0.00  0.00    +0.062 HD
ATOM     26  H   UNL A   1     -18.054  -1.540 -15.917  0.00  0.00    +0.066 HD
BRANCH  23  27
ATOM     27  O   UNL A   1     -19.681  -2.674 -14.426  0.00  0.00    -0.491 OA
BRANCH  27  28
ATOM     28  C   UNL A   1     -20.898  -1.977 -14.662  0.00  0.00    +0.079 C 
ATOM     29  H   UNL A   1     -21.540  -1.992 -13.777  0.00  0.00    +0.066 HD
ATOM     30  H   UNL A   1     -20.719  -0.960 -15.029  0.00  0.00    +0.066 HD
ATOM     31  H   UNL A   1     -21.440  -2.512 -15.449  0.00  0.00    +0.066 HD
ENDBRANCH  27  28
ENDBRANCH  23  27
BRANCH  21  32
ATOM     32  O   UNL A   1     -20.200  -5.440 -15.125  0.00  0.00    -0.491 OA
BRANCH  32  33
ATOM     33  C   UNL A   1     -21.536  -5.575 -15.584  0.00  0.00    +0.079 C 
ATOM     34  H   UNL A   1     -22.128  -6.143 -14.860  0.00  0.00    +0.066 HD
ATOM     35  H   UNL A   1     -22.005  -4.613 -15.817  0.00  0.00    +0.066 HD
ATOM     36  H   UNL A   1     -21.506  -6.143 -16.518  0.00  0.00    +0.066 HD
ENDBRANCH  32  33
ENDBRANCH  21  32
ENDBRANCH  15  18
ENDBRANCH  12  15
ENDBRANCH   7  12
ENDBRANCH   4   7
ENDBRANCH   1   4
BRANCH   1  37
ATOM     37  C   UNL A   1     -11.756  -2.708 -18.352  0.00  0.00    -0.029 C 
ATOM     38  H   UNL A   1     -11.849  -2.444 -19.415  0.00  0.00    +0.028 HD
ATOM     39  H   UNL A   1     -10.673  -2.741 -18.178  0.00  0.00    +0.028 HD
BRANCH  37  40
ATOM     40  C   UNL A   1     -12.417  -1.538 -17.444  0.00  0.00    +0.085 C 
BRANCH  40  41
ATOM     41  C   UNL A   1     -11.212  -0.991 -16.624  0.00  0.00    -0.024 A 
ATOM     42  C   UNL A   1     -11.457  -0.146 -15.520  0.00  0.00    -0.012 A 
ATOM     43  C   UNL A   1      -9.886  -1.413 -16.808  0.00  0.00    -0.053 A 
ATOM     44  C   UNL A   1     -10.460   0.215 -14.598  0.00  0.00    +0.162 A 
ATOM     45  C   UNL A   1      -8.868  -0.993 -15.945  0.00  0.00    -0.016 A 
ATOM     46  C   UNL A   1      -9.139  -0.176 -14.843  0.00  0.00    +0.162 A 
ATOM     47  H   UNL A   1     -12.472   0.209 -15.348  0.00  0.00    +0.066 HD
ATOM     48  H   UNL A   1      -9.604  -2.104 -17.596  0.00  0.00    +0.062 HD
ATOM     49  H   UNL A   1      -7.848  -1.332 -16.118  0.00  0.00    +0.066 HD
BRANCH  44  50
ATOM     50  O   UNL A   1     -10.753   0.917 -13.459  0.00  0.00    -0.491 OA
BRANCH  50  51
ATOM     51  C   UNL A   1     -11.747   1.928 -13.613  0.00  0.00    +0.079 C 
ATOM     52  H   UNL A   1     -12.368   1.932 -12.715  0.00  0.00    +0.066 HD
ATOM     53  H   UNL A   1     -11.286   2.917 -13.701  0.00  0.00    +0.066 HD
ATOM     54  H   UNL A   1     -12.403   1.727 -14.471  0.00  0.00    +0.066 HD
ENDBRANCH  50  51
ENDBRANCH  44  50
BRANCH  46  55
ATOM     55  O   UNL A   1      -8.042   0.066 -14.060  0.00  0.00    -0.491 OA
BRANCH  55  56
ATOM     56  C   UNL A   1      -6.837  -0.586 -14.440  0.00  0.00    +0.079 C 
ATOM     57  H   UNL A   1      -6.970  -1.667 -14.558  0.00  0.00    +0.066 HD
ATOM     58  H   UNL A   1      -6.417  -0.130 -15.340  0.00  0.00    +0.066 HD
ATOM     59  H   UNL A   1      -6.112  -0.429 -13.634  0.00  0.00    +0.066 HD
ENDBRANCH  55  56
ENDBRANCH  46  55
ENDBRANCH  40  41
BRANCH  40  60
ATOM     60  C   UNL A   1     -13.110  -0.480 -18.390  0.00  0.00    -0.024 C 
ATOM     61  H   UNL A   1     -13.415   0.376 -17.773  0.00  0.00    +0.031 HD
BRANCH  60  62
ATOM     62  C   UNL A   1     -14.385  -0.965 -19.096  0.00  0.00    -0.061 C 
ATOM     63  H   UNL A   1     -15.202  -1.175 -18.396  0.00  0.00    +0.023 HD
ATOM     64  H   UNL A   1     -14.755  -0.187 -19.773  0.00  0.00    +0.023 HD
ATOM     65  H   UNL A   1     -14.207  -1.867 -19.686  0.00  0.00    +0.023 HD
ENDBRANCH  60  62
BRANCH  60  66
ATOM     66  C   UNL A   1     -12.179   0.110 -19.465  0.00  0.00    -0.061 C 
ATOM     67  H   UNL A   1     -11.834   1.111 -19.193  0.00  0.00    +0.023 HD
ATOM     68  H   UNL A   1     -11.294  -0.526 -19.592  0.00  0.00    +0.023 HD
ATOM     69  H   UNL A   1     -12.660   0.159 -20.444  0.00  0.00    +0.023 HD
ENDBRANCH  60  66
ENDBRANCH  40  60
BRANCH  40  71
ATOM     70  N   UNL A   1     -14.236  -2.721 -15.704  0.00  0.00    -0.196 NA
ATOM     71  C   UNL A   1     -13.411  -2.185 -16.493  0.00  0.00    +0.074 C 
ENDBRANCH  40  71
ENDBRANCH  37  40
ENDBRANCH   1  37
TORSDOF 21
ENDMDL
MODEL 9
REMARK VINA RESULT:    -5.446     18.211     23.396
REMARK INTER + INTRA:         -12.430
REMARK INTER:                 -11.018
REMARK INTRA:                  -1.412
REMARK UNBOUND:                -1.412
REMARK  Name = 2520
REMARK  21 active torsions:
REMARK  status: ('A' for Active; 'I' for Inactive)
REMARK    1  A    between atoms: O_1  and  C_19
REMARK    2  A    between atoms: O_1  and  C_28
REMARK    3  A    between atoms: O_2  and  C_23
REMARK    4  A    between atoms: O_2  and  C_31
REMARK    5  A    between atoms: O_3  and  C_27
REMARK    6  A    between atoms: O_3  and  C_32
REMARK    7  A    between atoms: O_4  and  C_30
REMARK    8  A    between atoms: O_4  and  C_33
REMARK    9  A    between atoms: N_5  and  C_12
REMARK   10  A    between atoms: N_5  and  C_18
REMARK   11  A    between atoms: N_5  and  C_20
REMARK   12  A    between atoms: C_7  and  C_8
REMARK   13  A    between atoms: C_7  and  C_9
REMARK   14  A    between atoms: C_7  and  C_11
REMARK   15  A    between atoms: C_7  and  C_15
REMARK   16  A    between atoms: C_8  and  C_13
REMARK   17  A    between atoms: C_8  and  C_14
REMARK   18  A    between atoms: C_9  and  C_10
REMARK   19  A    between atoms: C_10  and  C_12
REMARK   20  A    between atoms: C_18  and  C_22
REMARK   21  A    between atoms: C_22  and  C_24
REMARK                            x       y       z     vdW  Elec       q    Type
REMARK                         _______ _______ _______ _____ _____    ______ ____
ROOT
ATOM      1  C   UNL A   1     -23.575 -10.073   9.137  0.00  0.00    -0.038 C 
ATOM      2  H   UNL A   1     -24.584 -10.179   9.547  0.00  0.00    +0.028 HD
ATOM      3  H   UNL A   1     -23.671  -9.712   8.110  0.00  0.00    +0.028 HD
ENDROOT
BRANCH   1   4
ATOM      4  C   UNL A   1     -22.933 -11.483   9.091  0.00  0.00    -0.001 C 
ATOM      5  H   UNL A   1     -23.708 -12.261   9.078  0.00  0.00    +0.043 HD
ATOM      6  H   UNL A   1     -22.406 -11.558   8.131  0.00  0.00    +0.043 HD
BRANCH   4   7
ATOM      7  N   UNL A   1     -21.964 -11.729  10.200  0.00  0.00    -0.305 NA
BRANCH   7   8
ATOM      8  C   UNL A   1     -20.597 -11.777   9.670  0.00  0.00    -0.013 C 
ATOM      9  H   UNL A   1     -20.075 -12.703   9.936  0.00  0.00    +0.039 HD
ATOM     10  H   UNL A   1     -20.598 -11.684   8.578  0.00  0.00    +0.039 HD
ATOM     11  H   UNL A   1     -20.007 -10.925  10.026  0.00  0.00    +0.039 HD
ENDBRANCH   7   8
BRANCH   7  12
ATOM     12  C   UNL A   1     -22.307 -12.952  10.982  0.00  0.00    +0.003 C 
ATOM     13  H   UNL A   1     -21.667 -13.760  10.614  0.00  0.00    +0.043 HD
ATOM     14  H   UNL A   1     -22.056 -12.784  12.036  0.00  0.00    +0.043 HD
BRANCH  12  15
ATOM     15  C   UNL A   1     -23.780 -13.466  10.921  0.00  0.00    -0.015 C 
ATOM     16  H   UNL A   1     -24.407 -12.767  11.491  0.00  0.00    +0.033 HD
ATOM     17  H   UNL A   1     -24.131 -13.451   9.882  0.00  0.00    +0.033 HD
BRANCH  15  18
ATOM     18  C   UNL A   1     -24.078 -14.841  11.516  0.00  0.00    -0.043 A 
ATOM     19  C   UNL A   1     -23.886 -15.168  12.869  0.00  0.00    -0.013 A 
ATOM     20  C   UNL A   1     -24.633 -15.825  10.685  0.00  0.00    -0.055 A 
ATOM     21  C   UNL A   1     -24.337 -16.392  13.419  0.00  0.00    +0.162 A 
ATOM     22  C   UNL A   1     -25.044 -17.055  11.209  0.00  0.00    -0.016 A 
ATOM     23  C   UNL A   1     -24.931 -17.341  12.576  0.00  0.00    +0.162 A 
ATOM     24  H   UNL A   1     -23.380 -14.451  13.504  0.00  0.00    +0.066 HD
ATOM     25  H   UNL A   1     -24.768 -15.639   9.621  0.00  0.00    +0.062 HD
ATOM     26  H   UNL A   1     -25.481 -17.798  10.543  0.00  0.00    +0.066 HD
BRANCH  23  27
ATOM     27  O   UNL A   1     -25.439 -18.576  12.899  0.00  0.00    -0.491 OA
BRANCH  27  28
ATOM     28  C   UNL A   1     -25.769 -19.479  11.851  0.00  0.00    +0.079 C 
ATOM     29  H   UNL A   1     -26.437 -19.013  11.122  0.00  0.00    +0.066 HD
ATOM     30  H   UNL A   1     -24.873 -19.903  11.383  0.00  0.00    +0.066 HD
ATOM     31  H   UNL A   1     -26.324 -20.313  12.294  0.00  0.00    +0.066 HD
ENDBRANCH  27  28
ENDBRANCH  23  27
BRANCH  21  32
ATOM     32  O   UNL A   1     -24.226 -16.698  14.746  0.00  0.00    -0.491 OA
BRANCH  32  33
ATOM     33  C   UNL A   1     -24.866 -15.879  15.712  0.00  0.00    +0.079 C 
ATOM     34  H   UNL A   1     -25.537 -16.482  16.331  0.00  0.00    +0.066 HD
ATOM     35  H   UNL A   1     -24.157 -15.312  16.326  0.00  0.00    +0.066 HD
ATOM     36  H   UNL A   1     -25.470 -15.145  15.172  0.00  0.00    +0.066 HD
ENDBRANCH  32  33
ENDBRANCH  21  32
ENDBRANCH  15  18
ENDBRANCH  12  15
ENDBRANCH   7  12
ENDBRANCH   4   7
ENDBRANCH   1   4
BRANCH   1  37
ATOM     37  C   UNL A   1     -22.782  -9.021   9.984  0.00  0.00    -0.029 C 
ATOM     38  H   UNL A   1     -21.725  -9.082   9.687  0.00  0.00    +0.028 HD
ATOM     39  H   UNL A   1     -22.784  -9.333  11.036  0.00  0.00    +0.028 HD
BRANCH  37  40
ATOM     40  C   UNL A   1     -23.287  -7.483   9.873  0.00  0.00    +0.085 C 
BRANCH  40  41
ATOM     41  C   UNL A   1     -24.444  -7.406  10.910  0.00  0.00    -0.024 A 
ATOM     42  C   UNL A   1     -25.570  -6.601  10.628  0.00  0.00    -0.012 A 
ATOM     43  C   UNL A   1     -24.527  -8.217  12.052  0.00  0.00    -0.053 A 
ATOM     44  C   UNL A   1     -26.748  -6.640  11.392  0.00  0.00    +0.162 A 
ATOM     45  C   UNL A   1     -25.662  -8.203  12.869  0.00  0.00    -0.016 A 
ATOM     46  C   UNL A   1     -26.774  -7.416  12.555  0.00  0.00    +0.162 A 
ATOM     47  H   UNL A   1     -25.542  -5.952   9.754  0.00  0.00    +0.066 HD
ATOM     48  H   UNL A   1     -23.736  -8.910  12.327  0.00  0.00    +0.062 HD
ATOM     49  H   UNL A   1     -25.692  -8.840  13.752  0.00  0.00    +0.066 HD
BRANCH  44  50
ATOM     50  O   UNL A   1     -27.874  -5.957  11.014  0.00  0.00    -0.491 OA
BRANCH  50  51
ATOM     51  C   UNL A   1     -27.639  -4.651  10.492  0.00  0.00    +0.079 C 
ATOM     52  H   UNL A   1     -28.132  -4.581   9.519  0.00  0.00    +0.066 HD
ATOM     53  H   UNL A   1     -28.079  -3.886  11.141  0.00  0.00    +0.066 HD
ATOM     54  H   UNL A   1     -26.569  -4.459  10.337  0.00  0.00    +0.066 HD
ENDBRANCH  50  51
ENDBRANCH  44  50
BRANCH  46  55
ATOM     55  O   UNL A   1     -27.826  -7.590  13.415  0.00  0.00    -0.491 OA
BRANCH  55  56
ATOM     56  C   UNL A   1     -28.630  -8.745  13.207  0.00  0.00    +0.079 C 
ATOM     57  H   UNL A   1     -29.374  -8.595  12.417  0.00  0.00    +0.066 HD
ATOM     58  H   UNL A   1     -28.006  -9.621  13.012  0.00  0.00    +0.066 HD
ATOM     59  H   UNL A   1     -29.172  -8.938  14.138  0.00  0.00    +0.066 HD
ENDBRANCH  55  56
ENDBRANCH  46  55
ENDBRANCH  40  41
BRANCH  40  60
ATOM     60  C   UNL A   1     -22.070  -6.518  10.164  0.00  0.00    -0.024 C 
ATOM     61  H   UNL A   1     -21.804  -6.621  11.225  0.00  0.00    +0.031 HD
BRANCH  60  62
ATOM     62  C   UNL A   1     -22.348  -5.024   9.942  0.00  0.00    -0.061 C 
ATOM     63  H   UNL A   1     -22.729  -4.527  10.841  0.00  0.00    +0.023 HD
ATOM     64  H   UNL A   1     -21.417  -4.508   9.680  0.00  0.00    +0.023 HD
ATOM     65  H   UNL A   1     -23.064  -4.858   9.135  0.00  0.00    +0.023 HD
ENDBRANCH  60  62
BRANCH  60  66
ATOM     66  C   UNL A   1     -20.786  -6.873   9.391  0.00  0.00    -0.061 C 
ATOM     67  H   UNL A   1     -19.896  -6.475   9.885  0.00  0.00    +0.023 HD
ATOM     68  H   UNL A   1     -20.672  -7.962   9.322  0.00  0.00    +0.023 HD
ATOM     69  H   UNL A   1     -20.810  -6.504   8.363  0.00  0.00    +0.023 HD
ENDBRANCH  60  66
ENDBRANCH  40  60
BRANCH  40  71
ATOM     70  N   UNL A   1     -24.326  -7.099   7.322  0.00  0.00    -0.196 NA
ATOM     71  C   UNL A   1     -23.854  -7.273   8.479  0.00  0.00    +0.074 C 
ENDBRANCH  40  71
ENDBRANCH  37  40
ENDBRANCH   1  37
TORSDOF 21
ENDMDL
