MODEL 1
REMARK VINA RESULT:    -5.284      0.000      0.000
REMARK INTER + INTRA:         -13.343
REMARK INTER:                 -11.691
REMARK INTRA:                  -1.652
REMARK UNBOUND:                -2.654
REMARK  Name = 2520
REMARK  21 active torsions:
REMARK  status: ('A' for Active; 'I' for Inactive)
REMARK    1  A    between atoms: O_1  and  C_19
REMARK    2  A    between atoms: O_1  and  C_28
REMARK    3  A    between atoms: O_2  and  C_23
REMARK    4  A    between atoms: O_2  and  C_31
REMARK    5  A    between atoms: O_3  and  C_27
REMARK    6  A    between atoms: O_3  and  C_32
REMARK    7  A    between atoms: O_4  and  C_30
REMARK    8  A    between atoms: O_4  and  C_33
REMARK    9  A    between atoms: N_5  and  C_12
REMARK   10  A    between atoms: N_5  and  C_18
REMARK   11  A    between atoms: N_5  and  C_20
REMARK   12  A    between atoms: C_7  and  C_8
REMARK   13  A    between atoms: C_7  and  C_9
REMARK   14  A    between atoms: C_7  and  C_11
REMARK   15  A    between atoms: C_7  and  C_15
REMARK   16  A    between atoms: C_8  and  C_13
REMARK   17  A    between atoms: C_8  and  C_14
REMARK   18  A    between atoms: C_9  and  C_10
REMARK   19  A    between atoms: C_10  and  C_12
REMARK   20  A    between atoms: C_18  and  C_22
REMARK   21  A    between atoms: C_22  and  C_24
REMARK                            x       y       z     vdW  Elec       q    Type
REMARK                         _______ _______ _______ _____ _____    ______ ____
ROOT
ATOM      1  C   UNL A   1     -24.128  -9.686   8.398  0.00  0.00    -0.038 C 
ATOM      2  H   UNL A   1     -25.012  -9.691   9.042  0.00  0.00    +0.028 HD
ATOM      3  H   UNL A   1     -24.439  -9.340   7.409  0.00  0.00    +0.028 HD
ENDROOT
BRANCH   1   4
ATOM      4  C   UNL A   1     -23.637 -11.150   8.258  0.00  0.00    -0.001 C 
ATOM      5  H   UNL A   1     -24.041 -11.608   7.346  0.00  0.00    +0.043 HD
ATOM      6  H   UNL A   1     -22.548 -11.106   8.125  0.00  0.00    +0.043 HD
BRANCH   4   7
ATOM      7  N   UNL A   1     -23.949 -11.995   9.449  0.00  0.00    -0.305 NA
BRANCH   7   8
ATOM      8  C   UNL A   1     -25.160 -11.498  10.113  0.00  0.00    -0.013 C 
ATOM      9  H   UNL A   1     -24.978 -10.586  10.692  0.00  0.00    +0.039 HD
ATOM     10  H   UNL A   1     -25.949 -11.289   9.381  0.00  0.00    +0.039 HD
ATOM     11  H   UNL A   1     -25.584 -12.258  10.778  0.00  0.00    +0.039 HD
ENDBRANCH   7   8
BRANCH   7  12
ATOM     12  C   UNL A   1     -22.793 -12.091  10.387  0.00  0.00    +0.003 C 
ATOM     13  H   UNL A   1     -21.972 -11.517   9.945  0.00  0.00    +0.043 HD
ATOM     14  H   UNL A   1     -23.061 -11.610  11.335  0.00  0.00    +0.043 HD
BRANCH  12  15
ATOM     15  C   UNL A   1     -22.238 -13.512  10.715  0.00  0.00    -0.015 C 
ATOM     16  H   UNL A   1     -22.365 -14.141   9.823  0.00  0.00    +0.033 HD
ATOM     17  H   UNL A   1     -21.162 -13.447  10.922  0.00  0.00    +0.033 HD
BRANCH  15  18
ATOM     18  C   UNL A   1     -22.904 -14.292  11.847  0.00  0.00    -0.043 A 
ATOM     19  C   UNL A   1     -24.059 -15.076  11.684  0.00  0.00    -0.013 A 
ATOM     20  C   UNL A   1     -22.303 -14.281  13.114  0.00  0.00    -0.055 A 
ATOM     21  C   UNL A   1     -24.545 -15.921  12.710  0.00  0.00    +0.162 A 
ATOM     22  C   UNL A   1     -22.799 -15.081  14.148  0.00  0.00    -0.016 A 
ATOM     23  C   UNL A   1     -23.898 -15.927  13.954  0.00  0.00    +0.162 A 
ATOM     24  H   UNL A   1     -24.584 -15.027  10.738  0.00  0.00    +0.066 HD
ATOM     25  H   UNL A   1     -21.429 -13.661  13.306  0.00  0.00    +0.062 HD
ATOM     26  H   UNL A   1     -22.307 -15.060  15.120  0.00  0.00    +0.066 HD
BRANCH  23  27
ATOM     27  O   UNL A   1     -24.196 -16.668  15.071  0.00  0.00    -0.491 OA
BRANCH  27  28
ATOM     28  C   UNL A   1     -25.094 -16.130  16.035  0.00  0.00    +0.079 C 
ATOM     29  H   UNL A   1     -24.809 -15.112  16.315  0.00  0.00    +0.066 HD
ATOM     30  H   UNL A   1     -26.135 -16.193  15.699  0.00  0.00    +0.066 HD
ATOM     31  H   UNL A   1     -25.011 -16.738  16.941  0.00  0.00    +0.066 HD
ENDBRANCH  27  28
ENDBRANCH  23  27
BRANCH  21  32
ATOM     32  O   UNL A   1     -25.622 -16.746  12.548  0.00  0.00    -0.491 OA
BRANCH  32  33
ATOM     33  C   UNL A   1     -26.891 -16.191  12.236  0.00  0.00    +0.079 C 
ATOM     34  H   UNL A   1     -27.362 -15.796  13.142  0.00  0.00    +0.066 HD
ATOM     35  H   UNL A   1     -26.842 -15.432  11.448  0.00  0.00    +0.066 HD
ATOM     36  H   UNL A   1     -27.518 -17.001  11.854  0.00  0.00    +0.066 HD
ENDBRANCH  32  33
ENDBRANCH  21  32
ENDBRANCH  15  18
ENDBRANCH  12  15
ENDBRANCH   7  12
ENDBRANCH   4   7
ENDBRANCH   1   4
BRANCH   1  37
ATOM     37  C   UNL A   1     -23.067  -8.694   8.985  0.00  0.00    -0.029 C 
ATOM     38  H   UNL A   1     -22.171  -8.750   8.350  0.00  0.00    +0.028 HD
ATOM     39  H   UNL A   1     -22.730  -9.067   9.960  0.00  0.00    +0.028 HD
BRANCH  37  40
ATOM     40  C   UNL A   1     -23.534  -7.147   9.127  0.00  0.00    +0.085 C 
BRANCH  40  41
ATOM     41  C   UNL A   1     -24.432  -7.155  10.398  0.00  0.00    -0.024 A 
ATOM     42  C   UNL A   1     -25.607  -6.373  10.415  0.00  0.00    -0.012 A 
ATOM     43  C   UNL A   1     -24.241  -8.021  11.486  0.00  0.00    -0.053 A 
ATOM     44  C   UNL A   1     -26.584  -6.484  11.419  0.00  0.00    +0.162 A 
ATOM     45  C   UNL A   1     -25.165  -8.080  12.534  0.00  0.00    -0.016 A 
ATOM     46  C   UNL A   1     -26.334  -7.314  12.516  0.00  0.00    +0.162 A 
ATOM     47  H   UNL A   1     -25.789  -5.682   9.593  0.00  0.00    +0.066 HD
ATOM     48  H   UNL A   1     -23.395  -8.701  11.541  0.00  0.00    +0.062 HD
ATOM     49  H   UNL A   1     -24.984  -8.758  13.366  0.00  0.00    +0.066 HD
BRANCH  44  50
ATOM     50  O   UNL A   1     -27.779  -5.819  11.337  0.00  0.00    -0.491 OA
BRANCH  50  51
ATOM     51  C   UNL A   1     -28.783  -6.478  10.567  0.00  0.00    +0.079 C 
ATOM     52  H   UNL A   1     -29.746  -6.016  10.798  0.00  0.00    +0.066 HD
ATOM     53  H   UNL A   1     -28.601  -6.344   9.495  0.00  0.00    +0.066 HD
ATOM     54  H   UNL A   1     -28.856  -7.545  10.818  0.00  0.00    +0.066 HD
ENDBRANCH  50  51
ENDBRANCH  44  50
BRANCH  46  55
ATOM     55  O   UNL A   1     -27.164  -7.561  13.578  0.00  0.00    -0.491 OA
BRANCH  55  56
ATOM     56  C   UNL A   1     -27.950  -8.744  13.506  0.00  0.00    +0.079 C 
ATOM     57  H   UNL A   1     -28.135  -9.057  12.473  0.00  0.00    +0.066 HD
ATOM     58  H   UNL A   1     -27.497  -9.546  14.095  0.00  0.00    +0.066 HD
ATOM     59  H   UNL A   1     -28.919  -8.520  13.963  0.00  0.00    +0.066 HD
ENDBRANCH  55  56
ENDBRANCH  46  55
ENDBRANCH  40  41
BRANCH  40  60
ATOM     60  C   UNL A   1     -22.252  -6.229   9.226  0.00  0.00    -0.024 C 
ATOM     61  H   UNL A   1     -22.015  -5.870   8.216  0.00  0.00    +0.031 HD
BRANCH  60  62
ATOM     62  C   UNL A   1     -20.982  -6.925   9.735  0.00  0.00    -0.061 C 
ATOM     63  H   UNL A   1     -20.852  -7.929   9.314  0.00  0.00    +0.023 HD
ATOM     64  H   UNL A   1     -20.097  -6.352   9.435  0.00  0.00    +0.023 HD
ATOM     65  H   UNL A   1     -20.972  -7.013  10.824  0.00  0.00    +0.023 HD
ENDBRANCH  60  62
BRANCH  60  66
ATOM     66  C   UNL A   1     -22.454  -4.955  10.068  0.00  0.00    -0.061 C 
ATOM     67  H   UNL A   1     -21.949  -5.028  11.035  0.00  0.00    +0.023 HD
ATOM     68  H   UNL A   1     -22.046  -4.083   9.542  0.00  0.00    +0.023 HD
ATOM     69  H   UNL A   1     -23.511  -4.739  10.241  0.00  0.00    +0.023 HD
ENDBRANCH  60  66
ENDBRANCH  40  60
BRANCH  40  71
ATOM     70  N   UNL A   1     -25.096  -6.511   6.915  0.00  0.00    -0.196 NA
ATOM     71  C   UNL A   1     -24.387  -6.800   7.918  0.00  0.00    +0.074 C 
ENDBRANCH  40  71
ENDBRANCH  37  40
ENDBRANCH   1  37
TORSDOF 21
ENDMDL
MODEL 2
REMARK VINA RESULT:    -5.043     28.290     30.920
REMARK INTER + INTRA:         -12.856
REMARK INTER:                 -11.267
REMARK INTRA:                  -1.589
REMARK UNBOUND:                -2.654
REMARK  Name = 2520
REMARK  21 active torsions:
REMARK  status: ('A' for Active; 'I' for Inactive)
REMARK    1  A    between atoms: O_1  and  C_19
REMARK    2  A    between atoms: O_1  and  C_28
REMARK    3  A    between atoms: O_2  and  C_23
REMARK    4  A    between atoms: O_2  and  C_31
REMARK    5  A    between atoms: O_3  and  C_27
REMARK    6  A    between atoms: O_3  and  C_32
REMARK    7  A    between atoms: O_4  and  C_30
REMARK    8  A    between atoms: O_4  and  C_33
REMARK    9  A    between atoms: N_5  and  C_12
REMARK   10  A    between atoms: N_5  and  C_18
REMARK   11  A    between atoms: N_5  and  C_20
REMARK   12  A    between atoms: C_7  and  C_8
REMARK   13  A    between atoms: C_7  and  C_9
REMARK   14  A    between atoms: C_7  and  C_11
REMARK   15  A    between atoms: C_7  and  C_15
REMARK   16  A    between atoms: C_8  and  C_13
REMARK   17  A    between atoms: C_8  and  C_14
REMARK   18  A    between atoms: C_9  and  C_10
REMARK   19  A    between atoms: C_10  and  C_12
REMARK   20  A    between atoms: C_18  and  C_22
REMARK   21  A    between atoms: C_22  and  C_24
REMARK                            x       y       z     vdW  Elec       q    Type
REMARK                         _______ _______ _______ _____ _____    ______ ____
ROOT
ATOM      1  C   UNL A   1     -21.445   8.269  -9.893  0.00  0.00    -0.038 C 
ATOM      2  H   UNL A   1     -21.123   9.287 -10.135  0.00  0.00    +0.028 HD
ATOM      3  H   UNL A   1     -22.009   7.887 -10.747  0.00  0.00    +0.028 HD
ENDROOT
BRANCH   1   4
ATOM      4  C   UNL A   1     -22.411   8.355  -8.683  0.00  0.00    -0.001 C 
ATOM      5  H   UNL A   1     -23.094   7.495  -8.671  0.00  0.00    +0.043 HD
ATOM      6  H   UNL A   1     -21.794   8.271  -7.779  0.00  0.00    +0.043 HD
BRANCH   4   7
ATOM      7  N   UNL A   1     -23.181   9.634  -8.631  0.00  0.00    -0.305 NA
BRANCH   7   8
ATOM      8  C   UNL A   1     -22.867  10.457  -9.804  0.00  0.00    -0.013 C 
ATOM      9  H   UNL A   1     -21.871  10.246 -10.211  0.00  0.00    +0.039 HD
ATOM     10  H   UNL A   1     -23.603  10.300 -10.601  0.00  0.00    +0.039 HD
ATOM     11  H   UNL A   1     -22.931  11.524  -9.565  0.00  0.00    +0.039 HD
ENDBRANCH   7   8
BRANCH   7  12
ATOM     12  C   UNL A   1     -22.959  10.369  -7.352  0.00  0.00    +0.003 C 
ATOM     13  H   UNL A   1     -23.481   9.813  -6.566  0.00  0.00    +0.043 HD
ATOM     14  H   UNL A   1     -21.889  10.356  -7.114  0.00  0.00    +0.043 HD
BRANCH  12  15
ATOM     15  C   UNL A   1     -23.447  11.849  -7.269  0.00  0.00    -0.015 C 
ATOM     16  H   UNL A   1     -23.783  12.153  -8.270  0.00  0.00    +0.033 HD
ATOM     17  H   UNL A   1     -24.312  11.914  -6.598  0.00  0.00    +0.033 HD
BRANCH  15  18
ATOM     18  C   UNL A   1     -22.429  12.911  -6.855  0.00  0.00    -0.043 A 
ATOM     19  C   UNL A   1     -21.393  13.369  -7.686  0.00  0.00    -0.013 A 
ATOM     20  C   UNL A   1     -22.564  13.514  -5.597  0.00  0.00    -0.055 A 
ATOM     21  C   UNL A   1     -20.580  14.473  -7.336  0.00  0.00    +0.162 A 
ATOM     22  C   UNL A   1     -21.740  14.581  -5.222  0.00  0.00    -0.016 A 
ATOM     23  C   UNL A   1     -20.766  15.090  -6.090  0.00  0.00    +0.162 A 
ATOM     24  H   UNL A   1     -21.221  12.854  -8.624  0.00  0.00    +0.066 HD
ATOM     25  H   UNL A   1     -23.326  13.173  -4.898  0.00  0.00    +0.062 HD
ATOM     26  H   UNL A   1     -21.873  15.037  -4.242  0.00  0.00    +0.066 HD
BRANCH  23  27
ATOM     27  O   UNL A   1     -20.100  16.168  -5.560  0.00  0.00    -0.491 OA
BRANCH  27  28
ATOM     28  C   UNL A   1     -20.773  17.419  -5.477  0.00  0.00    +0.079 C 
ATOM     29  H   UNL A   1     -21.228  17.559  -4.493  0.00  0.00    +0.066 HD
ATOM     30  H   UNL A   1     -20.116  18.251  -5.754  0.00  0.00    +0.066 HD
ATOM     31  H   UNL A   1     -21.594  17.403  -6.201  0.00  0.00    +0.066 HD
ENDBRANCH  27  28
ENDBRANCH  23  27
BRANCH  21  32
ATOM     32  O   UNL A   1     -19.616  14.980  -8.160  0.00  0.00    -0.491 OA
BRANCH  32  33
ATOM     33  C   UNL A   1     -18.559  14.142  -8.604  0.00  0.00    +0.079 C 
ATOM     34  H   UNL A   1     -18.339  13.382  -7.848  0.00  0.00    +0.066 HD
ATOM     35  H   UNL A   1     -18.758  13.688  -9.581  0.00  0.00    +0.066 HD
ATOM     36  H   UNL A   1     -17.672  14.769  -8.724  0.00  0.00    +0.066 HD
ENDBRANCH  32  33
ENDBRANCH  21  32
ENDBRANCH  15  18
ENDBRANCH  12  15
ENDBRANCH   7  12
ENDBRANCH   4   7
ENDBRANCH   1   4
BRANCH   1  37
ATOM     37  C   UNL A   1     -20.184   7.371  -9.659  0.00  0.00    -0.029 C 
ATOM     38  H   UNL A   1     -20.233   6.535 -10.372  0.00  0.00    +0.028 HD
ATOM     39  H   UNL A   1     -20.263   6.891  -8.676  0.00  0.00    +0.028 HD
BRANCH  37  40
ATOM     40  C   UNL A   1     -18.744   8.108  -9.789  0.00  0.00    +0.085 C 
BRANCH  40  41
ATOM     41  C   UNL A   1     -18.191   7.587 -11.147  0.00  0.00    -0.024 A 
ATOM     42  C   UNL A   1     -16.799   7.618 -11.382  0.00  0.00    -0.012 A 
ATOM     43  C   UNL A   1     -18.973   6.928 -12.109  0.00  0.00    -0.053 A 
ATOM     44  C   UNL A   1     -16.194   6.976 -12.475  0.00  0.00    +0.162 A 
ATOM     45  C   UNL A   1     -18.392   6.356 -13.244  0.00  0.00    -0.016 A 
ATOM     46  C   UNL A   1     -17.008   6.378 -13.443  0.00  0.00    +0.162 A 
ATOM     47  H   UNL A   1     -16.159   8.127 -10.663  0.00  0.00    +0.066 HD
ATOM     48  H   UNL A   1     -20.046   6.804 -11.994  0.00  0.00    +0.062 HD
ATOM     49  H   UNL A   1     -19.027   5.857 -13.975  0.00  0.00    +0.066 HD
BRANCH  44  50
ATOM     50  O   UNL A   1     -14.832   6.900 -12.602  0.00  0.00    -0.491 OA
BRANCH  50  51
ATOM     51  C   UNL A   1     -14.217   8.050 -13.179  0.00  0.00    +0.079 C 
ATOM     52  H   UNL A   1     -13.176   7.802 -13.402  0.00  0.00    +0.066 HD
ATOM     53  H   UNL A   1     -14.701   8.318 -14.125  0.00  0.00    +0.066 HD
ATOM     54  H   UNL A   1     -14.215   8.903 -12.488  0.00  0.00    +0.066 HD
ENDBRANCH  50  51
ENDBRANCH  44  50
BRANCH  46  55
ATOM     55  O   UNL A   1     -16.606   5.697 -14.562  0.00  0.00    -0.491 OA
BRANCH  55  56
ATOM     56  C   UNL A   1     -16.703   6.395 -15.797  0.00  0.00    +0.079 C 
ATOM     57  H   UNL A   1     -15.737   6.796 -16.123  0.00  0.00    +0.066 HD
ATOM     58  H   UNL A   1     -17.158   5.764 -16.564  0.00  0.00    +0.066 HD
ATOM     59  H   UNL A   1     -17.377   7.244 -15.640  0.00  0.00    +0.066 HD
ENDBRANCH  55  56
ENDBRANCH  46  55
ENDBRANCH  40  41
BRANCH  40  60
ATOM     60  C   UNL A   1     -18.956   9.671  -9.715  0.00  0.00    -0.024 C 
ATOM     61  H   UNL A   1     -20.035   9.868  -9.741  0.00  0.00    +0.031 HD
BRANCH  60  62
ATOM     62  C   UNL A   1     -18.352  10.473 -10.878  0.00  0.00    -0.061 C 
ATOM     63  H   UNL A   1     -18.591  10.042 -11.857  0.00  0.00    +0.023 HD
ATOM     64  H   UNL A   1     -18.763  11.488 -10.883  0.00  0.00    +0.023 HD
ATOM     65  H   UNL A   1     -17.265  10.549 -10.800  0.00  0.00    +0.023 HD
ENDBRANCH  60  62
BRANCH  60  66
ATOM     66  C   UNL A   1     -18.462  10.312  -8.404  0.00  0.00    -0.061 C 
ATOM     67  H   UNL A   1     -17.880  11.218  -8.592  0.00  0.00    +0.023 HD
ATOM     68  H   UNL A   1     -19.315  10.588  -7.771  0.00  0.00    +0.023 HD
ATOM     69  H   UNL A   1     -17.855   9.623  -7.812  0.00  0.00    +0.023 HD
ENDBRANCH  60  66
ENDBRANCH  40  60
BRANCH  40  71
ATOM     70  N   UNL A   1     -17.115   7.184  -7.732  0.00  0.00    -0.196 NA
ATOM     71  C   UNL A   1     -17.854   7.603  -8.665  0.00  0.00    +0.074 C 
ENDBRANCH  40  71
ENDBRANCH  37  40
ENDBRANCH   1  37
TORSDOF 21
ENDMDL
MODEL 3
REMARK VINA RESULT:    -4.953     15.137     17.726
REMARK INTER + INTRA:         -12.675
REMARK INTER:                  -9.563
REMARK INTRA:                  -3.112
REMARK UNBOUND:                -2.654
REMARK  Name = 2520
REMARK  21 active torsions:
REMARK  status: ('A' for Active; 'I' for Inactive)
REMARK    1  A    between atoms: O_1  and  C_19
REMARK    2  A    between atoms: O_1  and  C_28
REMARK    3  A    between atoms: O_2  and  C_23
REMARK    4  A    between atoms: O_2  and  C_31
REMARK    5  A    between atoms: O_3  and  C_27
REMARK    6  A    between atoms: O_3  and  C_32
REMARK    7  A    between atoms: O_4  and  C_30
REMARK    8  A    between atoms: O_4  and  C_33
REMARK    9  A    between atoms: N_5  and  C_12
REMARK   10  A    between atoms: N_5  and  C_18
REMARK   11  A    between atoms: N_5  and  C_20
REMARK   12  A    between atoms: C_7  and  C_8
REMARK   13  A    between atoms: C_7  and  C_9
REMARK   14  A    between atoms: C_7  and  C_11
REMARK   15  A    between atoms: C_7  and  C_15
REMARK   16  A    between atoms: C_8  and  C_13
REMARK   17  A    between atoms: C_8  and  C_14
REMARK   18  A    between atoms: C_9  and  C_10
REMARK   19  A    between atoms: C_10  and  C_12
REMARK   20  A    between atoms: C_18  and  C_22
REMARK   21  A    between atoms: C_22  and  C_24
REMARK                            x       y       z     vdW  Elec       q    Type
REMARK                         _______ _______ _______ _____ _____    ______ ____
ROOT
ATOM      1  C   UNL A   1     -25.183   0.917  25.724  0.00  0.00    -0.038 C 
ATOM      2  H   UNL A   1     -25.032   0.680  26.781  0.00  0.00    +0.028 HD
ATOM      3  H   UNL A   1     -24.819   1.933  25.556  0.00  0.00    +0.028 HD
ENDROOT
BRANCH   1   4
ATOM      4  C   UNL A   1     -26.709   0.906  25.451  0.00  0.00    -0.001 C 
ATOM      5  H   UNL A   1     -27.030   1.859  25.008  0.00  0.00    +0.043 HD
ATOM      6  H   UNL A   1     -26.889   0.137  24.689  0.00  0.00    +0.043 HD
BRANCH   4   7
ATOM      7  N   UNL A   1     -27.525   0.593  26.662  0.00  0.00    -0.305 NA
BRANCH   7   8
ATOM      8  C   UNL A   1     -26.934   1.230  27.844  0.00  0.00    -0.013 C 
ATOM      9  H   UNL A   1     -27.284   0.785  28.782  0.00  0.00    +0.039 HD
ATOM     10  H   UNL A   1     -25.840   1.161  27.819  0.00  0.00    +0.039 HD
ATOM     11  H   UNL A   1     -27.150   2.304  27.862  0.00  0.00    +0.039 HD
ENDBRANCH   7   8
BRANCH   7  12
ATOM     12  C   UNL A   1     -27.709  -0.876  26.848  0.00  0.00    +0.003 C 
ATOM     13  H   UNL A   1     -28.624  -1.156  26.316  0.00  0.00    +0.043 HD
ATOM     14  H   UNL A   1     -26.874  -1.404  26.373  0.00  0.00    +0.043 HD
BRANCH  12  15
ATOM     15  C   UNL A   1     -27.842  -1.414  28.307  0.00  0.00    -0.015 C 
ATOM     16  H   UNL A   1     -27.400  -0.671  28.985  0.00  0.00    +0.033 HD
ATOM     17  H   UNL A   1     -28.903  -1.508  28.568  0.00  0.00    +0.033 HD
BRANCH  15  18
ATOM     18  C   UNL A   1     -27.140  -2.727  28.647  0.00  0.00    -0.043 A 
ATOM     19  C   UNL A   1     -26.732  -3.669  27.687  0.00  0.00    -0.013 A 
ATOM     20  C   UNL A   1     -26.825  -2.992  29.988  0.00  0.00    -0.055 A 
ATOM     21  C   UNL A   1     -25.931  -4.787  28.023  0.00  0.00    +0.162 A 
ATOM     22  C   UNL A   1     -26.069  -4.115  30.337  0.00  0.00    -0.016 A 
ATOM     23  C   UNL A   1     -25.590  -5.004  29.366  0.00  0.00    +0.162 A 
ATOM     24  H   UNL A   1     -27.042  -3.523  26.660  0.00  0.00    +0.066 HD
ATOM     25  H   UNL A   1     -27.150  -2.316  30.776  0.00  0.00    +0.062 HD
ATOM     26  H   UNL A   1     -25.831  -4.292  31.385  0.00  0.00    +0.066 HD
BRANCH  23  27
ATOM     27  O   UNL A   1     -24.825  -6.010  29.904  0.00  0.00    -0.491 OA
BRANCH  27  28
ATOM     28  C   UNL A   1     -24.162  -5.783  31.142  0.00  0.00    +0.079 C 
ATOM     29  H   UNL A   1     -24.475  -4.836  31.590  0.00  0.00    +0.066 HD
ATOM     30  H   UNL A   1     -24.284  -6.629  31.828  0.00  0.00    +0.066 HD
ATOM     31  H   UNL A   1     -23.091  -5.691  30.933  0.00  0.00    +0.066 HD
ENDBRANCH  27  28
ENDBRANCH  23  27
BRANCH  21  32
ATOM     32  O   UNL A   1     -25.463  -5.673  27.095  0.00  0.00    -0.491 OA
BRANCH  32  33
ATOM     33  C   UNL A   1     -26.366  -6.557  26.448  0.00  0.00    +0.079 C 
ATOM     34  H   UNL A   1     -26.608  -6.182  25.449  0.00  0.00    +0.066 HD
ATOM     35  H   UNL A   1     -25.999  -7.588  26.411  0.00  0.00    +0.066 HD
ATOM     36  H   UNL A   1     -27.287  -6.573  27.037  0.00  0.00    +0.066 HD
ENDBRANCH  32  33
ENDBRANCH  21  32
ENDBRANCH  15  18
ENDBRANCH  12  15
ENDBRANCH   7  12
ENDBRANCH   4   7
ENDBRANCH   1   4
BRANCH   1  37
ATOM     37  C   UNL A   1     -24.356  -0.082  24.847  0.00  0.00    -0.029 C 
ATOM     38  H   UNL A   1     -23.711   0.511  24.184  0.00  0.00    +0.028 HD
ATOM     39  H   UNL A   1     -25.035  -0.606  24.163  0.00  0.00    +0.028 HD
BRANCH  37  40
ATOM     40  C   UNL A   1     -23.454  -1.166  25.651  0.00  0.00    +0.085 C 
BRANCH  40  41
ATOM     41  C   UNL A   1     -23.902  -2.528  25.047  0.00  0.00    -0.024 A 
ATOM     42  C   UNL A   1     -25.222  -2.669  24.565  0.00  0.00    -0.012 A 
ATOM     43  C   UNL A   1     -23.027  -3.596  24.794  0.00  0.00    -0.053 A 
ATOM     44  C   UNL A   1     -25.647  -3.775  23.812  0.00  0.00    +0.162 A 
ATOM     45  C   UNL A   1     -23.461  -4.741  24.118  0.00  0.00    -0.016 A 
ATOM     46  C   UNL A   1     -24.766  -4.846  23.628  0.00  0.00    +0.162 A 
ATOM     47  H   UNL A   1     -25.933  -1.864  24.748  0.00  0.00    +0.066 HD
ATOM     48  H   UNL A   1     -21.979  -3.564  25.077  0.00  0.00    +0.062 HD
ATOM     49  H   UNL A   1     -22.759  -5.555  23.943  0.00  0.00    +0.066 HD
BRANCH  44  50
ATOM     50  O   UNL A   1     -26.889  -3.820  23.236  0.00  0.00    -0.491 OA
BRANCH  50  51
ATOM     51  C   UNL A   1     -27.980  -3.780  24.154  0.00  0.00    +0.079 C 
ATOM     52  H   UNL A   1     -28.683  -3.016  23.813  0.00  0.00    +0.066 HD
ATOM     53  H   UNL A   1     -28.513  -4.737  24.167  0.00  0.00    +0.066 HD
ATOM     54  H   UNL A   1     -27.653  -3.504  25.166  0.00  0.00    +0.066 HD
ENDBRANCH  50  51
ENDBRANCH  44  50
BRANCH  46  55
ATOM     55  O   UNL A   1     -24.992  -5.996  22.918  0.00  0.00    -0.491 OA
BRANCH  55  56
ATOM     56  C   UNL A   1     -24.116  -6.249  21.827  0.00  0.00    +0.079 C 
ATOM     57  H   UNL A   1     -23.065  -6.097  22.095  0.00  0.00    +0.066 HD
ATOM     58  H   UNL A   1     -24.288  -7.247  21.416  0.00  0.00    +0.066 HD
ATOM     59  H   UNL A   1     -24.363  -5.531  21.038  0.00  0.00    +0.066 HD
ENDBRANCH  55  56
ENDBRANCH  46  55
ENDBRANCH  40  41
BRANCH  40  60
ATOM     60  C   UNL A   1     -21.927  -0.819  25.447  0.00  0.00    -0.024 C 
ATOM     61  H   UNL A   1     -21.344  -1.724  25.660  0.00  0.00    +0.031 HD
BRANCH  60  62
ATOM     62  C   UNL A   1     -21.370   0.270  26.376  0.00  0.00    -0.061 C 
ATOM     63  H   UNL A   1     -21.565   0.063  27.434  0.00  0.00    +0.023 HD
ATOM     64  H   UNL A   1     -20.281   0.327  26.271  0.00  0.00    +0.023 HD
ATOM     65  H   UNL A   1     -21.782   1.255  26.144  0.00  0.00    +0.023 HD
ENDBRANCH  60  62
BRANCH  60  66
ATOM     66  C   UNL A   1     -21.556  -0.433  24.003  0.00  0.00    -0.061 C 
ATOM     67  H   UNL A   1     -21.687  -1.273  23.315  0.00  0.00    +0.023 HD
ATOM     68  H   UNL A   1     -22.194   0.389  23.653  0.00  0.00    +0.023 HD
ATOM     69  H   UNL A   1     -20.527  -0.073  23.924  0.00  0.00    +0.023 HD
ENDBRANCH  60  66
ENDBRANCH  40  60
BRANCH  40  71
ATOM     70  N   UNL A   1     -24.188  -1.077  28.332  0.00  0.00    -0.196 NA
ATOM     71  C   UNL A   1     -23.855  -1.117  27.116  0.00  0.00    +0.074 C 
ENDBRANCH  40  71
ENDBRANCH  37  40
ENDBRANCH   1  37
TORSDOF 21
ENDMDL
MODEL 4
REMARK VINA RESULT:    -4.933     27.618     31.048
REMARK INTER + INTRA:         -12.634
REMARK INTER:                  -9.726
REMARK INTRA:                  -2.908
REMARK UNBOUND:                -2.654
REMARK  Name = 2520
REMARK  21 active torsions:
REMARK  status: ('A' for Active; 'I' for Inactive)
REMARK    1  A    between atoms: O_1  and  C_19
REMARK    2  A    between atoms: O_1  and  C_28
REMARK    3  A    between atoms: O_2  and  C_23
REMARK    4  A    between atoms: O_2  and  C_31
REMARK    5  A    between atoms: O_3  and  C_27
REMARK    6  A    between atoms: O_3  and  C_32
REMARK    7  A    between atoms: O_4  and  C_30
REMARK    8  A    between atoms: O_4  and  C_33
REMARK    9  A    between atoms: N_5  and  C_12
REMARK   10  A    between atoms: N_5  and  C_18
REMARK   11  A    between atoms: N_5  and  C_20
REMARK   12  A    between atoms: C_7  and  C_8
REMARK   13  A    between atoms: C_7  and  C_9
REMARK   14  A    between atoms: C_7  and  C_11
REMARK   15  A    between atoms: C_7  and  C_15
REMARK   16  A    between atoms: C_8  and  C_13
REMARK   17  A    between atoms: C_8  and  C_14
REMARK   18  A    between atoms: C_9  and  C_10
REMARK   19  A    between atoms: C_10  and  C_12
REMARK   20  A    between atoms: C_18  and  C_22
REMARK   21  A    between atoms: C_22  and  C_24
REMARK                            x       y       z     vdW  Elec       q    Type
REMARK                         _______ _______ _______ _____ _____    ______ ____
ROOT
ATOM      1  C   UNL A   1     -17.866  11.489  -9.313  0.00  0.00    -0.038 C 
ATOM      2  H   UNL A   1     -18.051  11.513  -8.235  0.00  0.00    +0.028 HD
ATOM      3  H   UNL A   1     -16.789  11.371  -9.462  0.00  0.00    +0.028 HD
ENDROOT
BRANCH   1   4
ATOM      4  C   UNL A   1     -18.279  12.866  -9.894  0.00  0.00    -0.001 C 
ATOM      5  H   UNL A   1     -17.405  13.523  -9.994  0.00  0.00    +0.043 HD
ATOM      6  H   UNL A   1     -18.645  12.682 -10.913  0.00  0.00    +0.043 HD
BRANCH   4   7
ATOM      7  N   UNL A   1     -19.353  13.542  -9.106  0.00  0.00    -0.305 NA
BRANCH   7   8
ATOM      8  C   UNL A   1     -19.645  14.859  -9.683  0.00  0.00    -0.013 C 
ATOM      9  H   UNL A   1     -20.557  15.306  -9.271  0.00  0.00    +0.039 HD
ATOM     10  H   UNL A   1     -18.814  15.554  -9.512  0.00  0.00    +0.039 HD
ATOM     11  H   UNL A   1     -19.744  14.798 -10.773  0.00  0.00    +0.039 HD
ENDBRANCH   7   8
BRANCH   7  12
ATOM     12  C   UNL A   1     -19.015  13.626  -7.656  0.00  0.00    +0.003 C 
ATOM     13  H   UNL A   1     -18.063  13.104  -7.516  0.00  0.00    +0.043 HD
ATOM     14  H   UNL A   1     -18.859  14.677  -7.385  0.00  0.00    +0.043 HD
BRANCH  12  15
ATOM     15  C   UNL A   1     -20.027  13.018  -6.635  0.00  0.00    -0.015 C 
ATOM     16  H   UNL A   1     -20.484  12.132  -7.097  0.00  0.00    +0.033 HD
ATOM     17  H   UNL A   1     -19.489  12.681  -5.741  0.00  0.00    +0.033 HD
BRANCH  15  18
ATOM     18  C   UNL A   1     -21.204  13.888  -6.196  0.00  0.00    -0.043 A 
ATOM     19  C   UNL A   1     -21.196  15.292  -6.235  0.00  0.00    -0.013 A 
ATOM     20  C   UNL A   1     -22.387  13.258  -5.786  0.00  0.00    -0.055 A 
ATOM     21  C   UNL A   1     -22.361  16.057  -5.988  0.00  0.00    +0.162 A 
ATOM     22  C   UNL A   1     -23.534  14.005  -5.500  0.00  0.00    -0.016 A 
ATOM     23  C   UNL A   1     -23.546  15.401  -5.624  0.00  0.00    +0.162 A 
ATOM     24  H   UNL A   1     -20.265  15.795  -6.465  0.00  0.00    +0.066 HD
ATOM     25  H   UNL A   1     -22.436  12.174  -5.701  0.00  0.00    +0.062 HD
ATOM     26  H   UNL A   1     -24.442  13.490  -5.192  0.00  0.00    +0.066 HD
BRANCH  23  27
ATOM     27  O   UNL A   1     -24.777  15.943  -5.351  0.00  0.00    -0.491 OA
BRANCH  27  28
ATOM     28  C   UNL A   1     -25.706  16.113  -6.415  0.00  0.00    +0.079 C 
ATOM     29  H   UNL A   1     -26.062  17.145  -6.469  0.00  0.00    +0.066 HD
ATOM     30  H   UNL A   1     -25.297  15.764  -7.370  0.00  0.00    +0.066 HD
ATOM     31  H   UNL A   1     -26.580  15.491  -6.195  0.00  0.00    +0.066 HD
ENDBRANCH  27  28
ENDBRANCH  23  27
BRANCH  21  32
ATOM     32  O   UNL A   1     -22.394  17.420  -6.092  0.00  0.00    -0.491 OA
BRANCH  32  33
ATOM     33  C   UNL A   1     -22.290  18.030  -7.369  0.00  0.00    +0.079 C 
ATOM     34  H   UNL A   1     -21.348  18.582  -7.446  0.00  0.00    +0.066 HD
ATOM     35  H   UNL A   1     -22.404  17.317  -8.192  0.00  0.00    +0.066 HD
ATOM     36  H   UNL A   1     -23.111  18.746  -7.458  0.00  0.00    +0.066 HD
ENDBRANCH  32  33
ENDBRANCH  21  32
ENDBRANCH  15  18
ENDBRANCH  12  15
ENDBRANCH   7  12
ENDBRANCH   4   7
ENDBRANCH   1   4
BRANCH   1  37
ATOM     37  C   UNL A   1     -18.613  10.264  -9.939  0.00  0.00    -0.029 C 
ATOM     38  H   UNL A   1     -17.854   9.591 -10.363  0.00  0.00    +0.028 HD
ATOM     39  H   UNL A   1     -19.188  10.603 -10.811  0.00  0.00    +0.028 HD
BRANCH  37  40
ATOM     40  C   UNL A   1     -19.582   9.428  -8.942  0.00  0.00    +0.085 C 
BRANCH  40  41
ATOM     41  C   UNL A   1     -20.921  10.219  -8.991  0.00  0.00    -0.024 A 
ATOM     42  C   UNL A   1     -21.301  10.859 -10.191  0.00  0.00    -0.012 A 
ATOM     43  C   UNL A   1     -21.873  10.209  -7.960  0.00  0.00    -0.053 A 
ATOM     44  C   UNL A   1     -22.579  11.404 -10.395  0.00  0.00    +0.162 A 
ATOM     45  C   UNL A   1     -23.120  10.822  -8.121  0.00  0.00    -0.016 A 
ATOM     46  C   UNL A   1     -23.482  11.427  -9.328  0.00  0.00    +0.162 A 
ATOM     47  H   UNL A   1     -20.587  10.894 -11.013  0.00  0.00    +0.066 HD
ATOM     48  H   UNL A   1     -21.698   9.699  -7.017  0.00  0.00    +0.062 HD
ATOM     49  H   UNL A   1     -23.834  10.803  -7.299  0.00  0.00    +0.066 HD
BRANCH  44  50
ATOM     50  O   UNL A   1     -22.968  11.890 -11.616  0.00  0.00    -0.491 OA
BRANCH  50  51
ATOM     51  C   UNL A   1     -22.536  13.219 -11.901  0.00  0.00    +0.079 C 
ATOM     52  H   UNL A   1     -22.006  13.206 -12.856  0.00  0.00    +0.066 HD
ATOM     53  H   UNL A   1     -23.393  13.892 -12.008  0.00  0.00    +0.066 HD
ATOM     54  H   UNL A   1     -21.840  13.594 -11.139  0.00  0.00    +0.066 HD
ENDBRANCH  50  51
ENDBRANCH  44  50
BRANCH  46  55
ATOM     55  O   UNL A   1     -24.768  11.900  -9.337  0.00  0.00    -0.491 OA
BRANCH  55  56
ATOM     56  C   UNL A   1     -24.951  13.245  -8.913  0.00  0.00    +0.079 C 
ATOM     57  H   UNL A   1     -25.178  13.916  -9.748  0.00  0.00    +0.066 HD
ATOM     58  H   UNL A   1     -25.712  13.304  -8.130  0.00  0.00    +0.066 HD
ATOM     59  H   UNL A   1     -24.008  13.578  -8.467  0.00  0.00    +0.066 HD
ENDBRANCH  55  56
ENDBRANCH  46  55
ENDBRANCH  40  41
BRANCH  40  60
ATOM     60  C   UNL A   1     -19.675   7.934  -9.445  0.00  0.00    -0.024 C 
ATOM     61  H   UNL A   1     -18.657   7.525  -9.479  0.00  0.00    +0.031 HD
BRANCH  60  62
ATOM     62  C   UNL A   1     -20.251   7.750 -10.857  0.00  0.00    -0.061 C 
ATOM     63  H   UNL A   1     -19.523   7.328 -11.559  0.00  0.00    +0.023 HD
ATOM     64  H   UNL A   1     -21.090   7.046 -10.828  0.00  0.00    +0.023 HD
ATOM     65  H   UNL A   1     -20.616   8.691 -11.275  0.00  0.00    +0.023 HD
ENDBRANCH  60  62
BRANCH  60  66
ATOM     66  C   UNL A   1     -20.453   6.999  -8.500  0.00  0.00    -0.061 C 
ATOM     67  H   UNL A   1     -20.348   5.951  -8.794  0.00  0.00    +0.023 HD
ATOM     68  H   UNL A   1     -20.078   7.098  -7.474  0.00  0.00    +0.023 HD
ATOM     69  H   UNL A   1     -21.517   7.246  -8.460  0.00  0.00    +0.023 HD
ENDBRANCH  60  66
ENDBRANCH  40  60
BRANCH  40  71
ATOM     70  N   UNL A   1     -18.523   9.592  -6.375  0.00  0.00    -0.196 NA
ATOM     71  C   UNL A   1     -19.003   9.518  -7.539  0.00  0.00    +0.074 C 
ENDBRANCH  40  71
ENDBRANCH  37  40
ENDBRANCH   1  37
TORSDOF 21
ENDMDL
MODEL 5
REMARK VINA RESULT:    -4.733     41.956     45.715
REMARK INTER + INTRA:         -12.229
REMARK INTER:                 -10.859
REMARK INTRA:                  -1.370
REMARK UNBOUND:                -2.654
REMARK  Name = 2520
REMARK  21 active torsions:
REMARK  status: ('A' for Active; 'I' for Inactive)
REMARK    1  A    between atoms: O_1  and  C_19
REMARK    2  A    between atoms: O_1  and  C_28
REMARK    3  A    between atoms: O_2  and  C_23
REMARK    4  A    between atoms: O_2  and  C_31
REMARK    5  A    between atoms: O_3  and  C_27
REMARK    6  A    between atoms: O_3  and  C_32
REMARK    7  A    between atoms: O_4  and  C_30
REMARK    8  A    between atoms: O_4  and  C_33
REMARK    9  A    between atoms: N_5  and  C_12
REMARK   10  A    between atoms: N_5  and  C_18
REMARK   11  A    between atoms: N_5  and  C_20
REMARK   12  A    between atoms: C_7  and  C_8
REMARK   13  A    between atoms: C_7  and  C_9
REMARK   14  A    between atoms: C_7  and  C_11
REMARK   15  A    between atoms: C_7  and  C_15
REMARK   16  A    between atoms: C_8  and  C_13
REMARK   17  A    between atoms: C_8  and  C_14
REMARK   18  A    between atoms: C_9  and  C_10
REMARK   19  A    between atoms: C_10  and  C_12
REMARK   20  A    between atoms: C_18  and  C_22
REMARK   21  A    between atoms: C_22  and  C_24
REMARK                            x       y       z     vdW  Elec       q    Type
REMARK                         _______ _______ _______ _____ _____    ______ ____
ROOT
ATOM      1  C   UNL A   1      18.696   2.104   0.160  0.00  0.00    -0.038 C 
ATOM      2  H   UNL A   1      19.590   2.557   0.599  0.00  0.00    +0.028 HD
ATOM      3  H   UNL A   1      17.829   2.664   0.520  0.00  0.00    +0.028 HD
ENDROOT
BRANCH   1   4
ATOM      4  C   UNL A   1      18.586   0.655   0.702  0.00  0.00    -0.001 C 
ATOM      5  H   UNL A   1      18.255  -0.030  -0.089  0.00  0.00    +0.043 HD
ATOM      6  H   UNL A   1      19.603   0.343   0.976  0.00  0.00    +0.043 HD
BRANCH   4   7
ATOM      7  N   UNL A   1      17.701   0.537   1.899  0.00  0.00    -0.305 NA
BRANCH   7   8
ATOM      8  C   UNL A   1      17.472  -0.877   2.216  0.00  0.00    -0.013 C 
ATOM      9  H   UNL A   1      16.418  -1.098   2.416  0.00  0.00    +0.039 HD
ATOM     10  H   UNL A   1      17.808  -1.521   1.395  0.00  0.00    +0.039 HD
ATOM     11  H   UNL A   1      18.068  -1.188   3.081  0.00  0.00    +0.039 HD
ENDBRANCH   7   8
BRANCH   7  12
ATOM     12  C   UNL A   1      16.424   1.289   1.728  0.00  0.00    +0.003 C 
ATOM     13  H   UNL A   1      16.389   2.049   2.515  0.00  0.00    +0.043 HD
ATOM     14  H   UNL A   1      16.444   1.811   0.764  0.00  0.00    +0.043 HD
BRANCH  12  15
ATOM     15  C   UNL A   1      15.089   0.484   1.805  0.00  0.00    -0.015 C 
ATOM     16  H   UNL A   1      14.699   0.375   0.783  0.00  0.00    +0.033 HD
ATOM     17  H   UNL A   1      15.290  -0.523   2.190  0.00  0.00    +0.033 HD
BRANCH  15  18
ATOM     18  C   UNL A   1      13.938   1.090   2.605  0.00  0.00    -0.043 A 
ATOM     19  C   UNL A   1      13.838   2.456   2.921  0.00  0.00    -0.013 A 
ATOM     20  C   UNL A   1      12.884   0.256   3.001  0.00  0.00    -0.055 A 
ATOM     21  C   UNL A   1      12.675   3.008   3.510  0.00  0.00    +0.162 A 
ATOM     22  C   UNL A   1      11.746   0.784   3.620  0.00  0.00    -0.016 A 
ATOM     23  C   UNL A   1      11.614   2.159   3.854  0.00  0.00    +0.162 A 
ATOM     24  H   UNL A   1      14.682   3.098   2.700  0.00  0.00    +0.066 HD
ATOM     25  H   UNL A   1      12.927  -0.816   2.815  0.00  0.00    +0.062 HD
ATOM     26  H   UNL A   1      10.938   0.114   3.909  0.00  0.00    +0.066 HD
BRANCH  23  27
ATOM     27  O   UNL A   1      10.406   2.483   4.421  0.00  0.00    -0.491 OA
BRANCH  27  28
ATOM     28  C   UNL A   1      10.174   2.148   5.784  0.00  0.00    +0.079 C 
ATOM     29  H   UNL A   1      10.057   1.068   5.911  0.00  0.00    +0.066 HD
ATOM     30  H   UNL A   1      10.946   2.563   6.441  0.00  0.00    +0.066 HD
ATOM     31  H   UNL A   1       9.222   2.602   6.079  0.00  0.00    +0.066 HD
ENDBRANCH  27  28
ENDBRANCH  23  27
BRANCH  21  32
ATOM     32  O   UNL A   1      12.529   4.344   3.759  0.00  0.00    -0.491 OA
BRANCH  32  33
ATOM     33  C   UNL A   1      13.660   5.119   4.126  0.00  0.00    +0.079 C 
ATOM     34  H   UNL A   1      14.456   4.468   4.502  0.00  0.00    +0.066 HD
ATOM     35  H   UNL A   1      14.019   5.759   3.313  0.00  0.00    +0.066 HD
ATOM     36  H   UNL A   1      13.353   5.784   4.937  0.00  0.00    +0.066 HD
ENDBRANCH  32  33
ENDBRANCH  21  32
ENDBRANCH  15  18
ENDBRANCH  12  15
ENDBRANCH   7  12
ENDBRANCH   4   7
ENDBRANCH   1   4
BRANCH   1  37
ATOM     37  C   UNL A   1      18.774   2.214  -1.400  0.00  0.00    -0.029 C 
ATOM     38  H   UNL A   1      18.042   2.970  -1.718  0.00  0.00    +0.028 HD
ATOM     39  H   UNL A   1      18.406   1.281  -1.843  0.00  0.00    +0.028 HD
BRANCH  37  40
ATOM     40  C   UNL A   1      20.229   2.574  -2.022  0.00  0.00    +0.085 C 
BRANCH  40  41
ATOM     41  C   UNL A   1      20.552   1.345  -2.920  0.00  0.00    -0.024 A 
ATOM     42  C   UNL A   1      20.040   0.078  -2.566  0.00  0.00    -0.012 A 
ATOM     43  C   UNL A   1      21.193   1.434  -4.166  0.00  0.00    -0.053 A 
ATOM     44  C   UNL A   1      20.094  -1.035  -3.421  0.00  0.00    +0.162 A 
ATOM     45  C   UNL A   1      21.327   0.313  -4.991  0.00  0.00    -0.016 A 
ATOM     46  C   UNL A   1      20.789  -0.925  -4.630  0.00  0.00    +0.162 A 
ATOM     47  H   UNL A   1      19.542  -0.034  -1.604  0.00  0.00    +0.066 HD
ATOM     48  H   UNL A   1      21.576   2.374  -4.552  0.00  0.00    +0.062 HD
ATOM     49  H   UNL A   1      21.836   0.414  -5.949  0.00  0.00    +0.066 HD
BRANCH  44  50
ATOM     50  O   UNL A   1      19.463  -2.211  -3.112  0.00  0.00    -0.491 OA
BRANCH  50  51
ATOM     51  C   UNL A   1      19.520  -2.582  -1.736  0.00  0.00    +0.079 C 
ATOM     52  H   UNL A   1      19.918  -1.734  -1.173  0.00  0.00    +0.066 HD
ATOM     53  H   UNL A   1      18.518  -2.795  -1.348  0.00  0.00    +0.066 HD
ATOM     54  H   UNL A   1      20.191  -3.435  -1.571  0.00  0.00    +0.066 HD
ENDBRANCH  50  51
ENDBRANCH  44  50
BRANCH  46  55
ATOM     55  O   UNL A   1      20.938  -1.888  -5.593  0.00  0.00    -0.491 OA
BRANCH  55  56
ATOM     56  C   UNL A   1      22.109  -1.803  -6.397  0.00  0.00    +0.079 C 
ATOM     57  H   UNL A   1      22.771  -0.990  -6.080  0.00  0.00    +0.066 HD
ATOM     58  H   UNL A   1      22.632  -2.763  -6.421  0.00  0.00    +0.066 HD
ATOM     59  H   UNL A   1      21.787  -1.588  -7.421  0.00  0.00    +0.066 HD
ENDBRANCH  55  56
ENDBRANCH  46  55
ENDBRANCH  40  41
BRANCH  40  60
ATOM     60  C   UNL A   1      20.135   3.951  -2.790  0.00  0.00    -0.024 C 
ATOM     61  H   UNL A   1      19.996   3.734  -3.857  0.00  0.00    +0.031 HD
BRANCH  60  62
ATOM     62  C   UNL A   1      21.385   4.840  -2.700  0.00  0.00    -0.061 C 
ATOM     63  H   UNL A   1      22.237   4.428  -3.251  0.00  0.00    +0.023 HD
ATOM     64  H   UNL A   1      21.178   5.819  -3.146  0.00  0.00    +0.023 HD
ATOM     65  H   UNL A   1      21.698   5.001  -1.666  0.00  0.00    +0.023 HD
ENDBRANCH  60  62
BRANCH  60  66
ATOM     66  C   UNL A   1      18.922   4.813  -2.392  0.00  0.00    -0.061 C 
ATOM     67  H   UNL A   1      18.113   4.731  -3.123  0.00  0.00    +0.023 HD
ATOM     68  H   UNL A   1      18.529   4.490  -1.420  0.00  0.00    +0.023 HD
ATOM     69  H   UNL A   1      19.186   5.867  -2.279  0.00  0.00    +0.023 HD
ENDBRANCH  60  66
ENDBRANCH  40  60
BRANCH  40  71
ATOM     70  N   UNL A   1      22.059   2.677   0.070  0.00  0.00    -0.196 NA
ATOM     71  C   UNL A   1      21.229   2.630  -0.879  0.00  0.00    +0.074 C 
ENDBRANCH  40  71
ENDBRANCH  37  40
ENDBRANCH   1  37
TORSDOF 21
ENDMDL
MODEL 6
REMARK VINA RESULT:    -4.680     45.228     49.118
REMARK INTER + INTRA:         -12.122
REMARK INTER:                  -9.095
REMARK INTRA:                  -3.026
REMARK UNBOUND:                -2.654
REMARK  Name = 2520
REMARK  21 active torsions:
REMARK  status: ('A' for Active; 'I' for Inactive)
REMARK    1  A    between atoms: O_1  and  C_19
REMARK    2  A    between atoms: O_1  and  C_28
REMARK    3  A    between atoms: O_2  and  C_23
REMARK    4  A    between atoms: O_2  and  C_31
REMARK    5  A    between atoms: O_3  and  C_27
REMARK    6  A    between atoms: O_3  and  C_32
REMARK    7  A    between atoms: O_4  and  C_30
REMARK    8  A    between atoms: O_4  and  C_33
REMARK    9  A    between atoms: N_5  and  C_12
REMARK   10  A    between atoms: N_5  and  C_18
REMARK   11  A    between atoms: N_5  and  C_20
REMARK   12  A    between atoms: C_7  and  C_8
REMARK   13  A    between atoms: C_7  and  C_9
REMARK   14  A    between atoms: C_7  and  C_11
REMARK   15  A    between atoms: C_7  and  C_15
REMARK   16  A    between atoms: C_8  and  C_13
REMARK   17  A    between atoms: C_8  and  C_14
REMARK   18  A    between atoms: C_9  and  C_10
REMARK   19  A    between atoms: C_10  and  C_12
REMARK   20  A    between atoms: C_18  and  C_22
REMARK   21  A    between atoms: C_22  and  C_24
REMARK                            x       y       z     vdW  Elec       q    Type
REMARK                         _______ _______ _______ _____ _____    ______ ____
ROOT
ATOM      1  C   UNL A   1      23.032   1.309  -1.594  0.00  0.00    -0.038 C 
ATOM      2  H   UNL A   1      22.514   1.605  -0.677  0.00  0.00    +0.028 HD
ATOM      3  H   UNL A   1      23.493   0.334  -1.414  0.00  0.00    +0.028 HD
ENDROOT
BRANCH   1   4
ATOM      4  C   UNL A   1      24.167   2.333  -1.848  0.00  0.00    -0.001 C 
ATOM      5  H   UNL A   1      24.199   3.083  -1.047  0.00  0.00    +0.043 HD
ATOM      6  H   UNL A   1      25.113   1.778  -1.789  0.00  0.00    +0.043 HD
BRANCH   4   7
ATOM      7  N   UNL A   1      24.076   2.998  -3.183  0.00  0.00    -0.305 NA
BRANCH   7   8
ATOM      8  C   UNL A   1      25.358   2.889  -3.886  0.00  0.00    -0.013 C 
ATOM      9  H   UNL A   1      26.200   3.256  -3.288  0.00  0.00    +0.039 HD
ATOM     10  H   UNL A   1      25.564   1.848  -4.165  0.00  0.00    +0.039 HD
ATOM     11  H   UNL A   1      25.335   3.437  -4.835  0.00  0.00    +0.039 HD
ENDBRANCH   7   8
BRANCH   7  12
ATOM     12  C   UNL A   1      23.613   4.412  -3.073  0.00  0.00    +0.003 C 
ATOM     13  H   UNL A   1      23.929   4.779  -2.091  0.00  0.00    +0.043 HD
ATOM     14  H   UNL A   1      24.125   5.016  -3.832  0.00  0.00    +0.043 HD
BRANCH  12  15
ATOM     15  C   UNL A   1      22.083   4.690  -3.198  0.00  0.00    -0.015 C 
ATOM     16  H   UNL A   1      21.947   5.553  -3.864  0.00  0.00    +0.033 HD
ATOM     17  H   UNL A   1      21.591   3.830  -3.669  0.00  0.00    +0.033 HD
BRANCH  15  18
ATOM     18  C   UNL A   1      21.319   5.049  -1.924  0.00  0.00    -0.043 A 
ATOM     19  C   UNL A   1      21.871   4.980  -0.634  0.00  0.00    -0.013 A 
ATOM     20  C   UNL A   1      20.009   5.534  -2.043  0.00  0.00    -0.055 A 
ATOM     21  C   UNL A   1      21.194   5.486   0.501  0.00  0.00    +0.162 A 
ATOM     22  C   UNL A   1      19.314   5.999  -0.921  0.00  0.00    -0.016 A 
ATOM     23  C   UNL A   1      19.902   6.009   0.350  0.00  0.00    +0.162 A 
ATOM     24  H   UNL A   1      22.848   4.527  -0.517  0.00  0.00    +0.066 HD
ATOM     25  H   UNL A   1      19.519   5.573  -3.014  0.00  0.00    +0.062 HD
ATOM     26  H   UNL A   1      18.300   6.379  -1.043  0.00  0.00    +0.066 HD
BRANCH  23  27
ATOM     27  O   UNL A   1      19.080   6.552   1.306  0.00  0.00    -0.491 OA
BRANCH  27  28
ATOM     28  C   UNL A   1      18.027   7.417   0.898  0.00  0.00    +0.079 C 
ATOM     29  H   UNL A   1      17.589   7.939   1.753  0.00  0.00    +0.066 HD
ATOM     30  H   UNL A   1      18.351   8.107   0.111  0.00  0.00    +0.066 HD
ATOM     31  H   UNL A   1      17.233   6.795   0.471  0.00  0.00    +0.066 HD
ENDBRANCH  27  28
ENDBRANCH  23  27
BRANCH  21  32
ATOM     32  O   UNL A   1      21.743   5.495   1.753  0.00  0.00    -0.491 OA
BRANCH  32  33
ATOM     33  C   UNL A   1      22.545   6.593   2.161  0.00  0.00    +0.079 C 
ATOM     34  H   UNL A   1      21.941   7.504   2.206  0.00  0.00    +0.066 HD
ATOM     35  H   UNL A   1      23.066   6.411   3.107  0.00  0.00    +0.066 HD
ATOM     36  H   UNL A   1      23.318   6.735   1.400  0.00  0.00    +0.066 HD
ENDBRANCH  32  33
ENDBRANCH  21  32
ENDBRANCH  15  18
ENDBRANCH  12  15
ENDBRANCH   7  12
ENDBRANCH   4   7
ENDBRANCH   1   4
BRANCH   1  37
ATOM     37  C   UNL A   1      21.991   1.183  -2.757  0.00  0.00    -0.029 C 
ATOM     38  H   UNL A   1      22.552   1.086  -3.698  0.00  0.00    +0.028 HD
ATOM     39  H   UNL A   1      21.455   2.135  -2.861  0.00  0.00    +0.028 HD
BRANCH  37  40
ATOM     40  C   UNL A   1      20.923  -0.031  -2.637  0.00  0.00    +0.085 C 
BRANCH  40  41
ATOM     41  C   UNL A   1      19.880   0.503  -1.612  0.00  0.00    -0.024 A 
ATOM     42  C   UNL A   1      19.527  -0.300  -0.506  0.00  0.00    -0.012 A 
ATOM     43  C   UNL A   1      19.377   1.813  -1.620  0.00  0.00    -0.053 A 
ATOM     44  C   UNL A   1      18.770   0.180   0.576  0.00  0.00    +0.162 A 
ATOM     45  C   UNL A   1      18.553   2.277  -0.590  0.00  0.00    -0.016 A 
ATOM     46  C   UNL A   1      18.238   1.472   0.508  0.00  0.00    +0.162 A 
ATOM     47  H   UNL A   1      19.892  -1.325  -0.466  0.00  0.00    +0.066 HD
ATOM     48  H   UNL A   1      19.633   2.525  -2.400  0.00  0.00    +0.062 HD
ATOM     49  H   UNL A   1      18.173   3.297  -0.629  0.00  0.00    +0.066 HD
BRANCH  44  50
ATOM     50  O   UNL A   1      18.563  -0.575   1.701  0.00  0.00    -0.491 OA
BRANCH  50  51
ATOM     51  C   UNL A   1      17.516  -1.537   1.595  0.00  0.00    +0.079 C 
ATOM     52  H   UNL A   1      17.022  -1.609   2.567  0.00  0.00    +0.066 HD
ATOM     53  H   UNL A   1      16.765  -1.217   0.865  0.00  0.00    +0.066 HD
ATOM     54  H   UNL A   1      17.902  -2.534   1.343  0.00  0.00    +0.066 HD
ENDBRANCH  50  51
ENDBRANCH  44  50
BRANCH  46  55
ATOM     55  O   UNL A   1      17.493   2.115   1.461  0.00  0.00    -0.491 OA
BRANCH  55  56
ATOM     56  C   UNL A   1      18.054   3.301   2.010  0.00  0.00    +0.079 C 
ATOM     57  H   UNL A   1      18.076   3.281   3.105  0.00  0.00    +0.066 HD
ATOM     58  H   UNL A   1      19.045   3.490   1.590  0.00  0.00    +0.066 HD
ATOM     59  H   UNL A   1      17.413   4.135   1.707  0.00  0.00    +0.066 HD
ENDBRANCH  55  56
ENDBRANCH  46  55
ENDBRANCH  40  41
BRANCH  40  60
ATOM     60  C   UNL A   1      20.341  -0.351  -4.070  0.00  0.00    -0.024 C 
ATOM     61  H   UNL A   1      19.623   0.438  -4.327  0.00  0.00    +0.031 HD
BRANCH  60  62
ATOM     62  C   UNL A   1      19.572  -1.676  -4.187  0.00  0.00    -0.061 C 
ATOM     63  H   UNL A   1      19.956  -2.449  -3.511  0.00  0.00    +0.023 HD
ATOM     64  H   UNL A   1      18.523  -1.523  -3.910  0.00  0.00    +0.023 HD
ATOM     65  H   UNL A   1      19.598  -2.075  -5.203  0.00  0.00    +0.023 HD
ENDBRANCH  60  62
BRANCH  60  66
ATOM     66  C   UNL A   1      21.391  -0.323  -5.196  0.00  0.00    -0.061 C 
ATOM     67  H   UNL A   1      21.077   0.321  -6.023  0.00  0.00    +0.023 HD
ATOM     68  H   UNL A   1      22.346   0.062  -4.817  0.00  0.00    +0.023 HD
ATOM     69  H   UNL A   1      21.600  -1.320  -5.590  0.00  0.00    +0.023 HD
ENDBRANCH  60  66
ENDBRANCH  40  60
BRANCH  40  71
ATOM     70  N   UNL A   1      22.233  -2.225  -1.537  0.00  0.00    -0.196 NA
ATOM     71  C   UNL A   1      21.639  -1.230  -2.036  0.00  0.00    +0.074 C 
ENDBRANCH  40  71
ENDBRANCH  37  40
ENDBRANCH   1  37
TORSDOF 21
ENDMDL
MODEL 7
REMARK VINA RESULT:    -4.680     26.137     29.143
REMARK INTER + INTRA:         -12.121
REMARK INTER:                 -10.647
REMARK INTRA:                  -1.474
REMARK UNBOUND:                -2.654
REMARK  Name = 2520
REMARK  21 active torsions:
REMARK  status: ('A' for Active; 'I' for Inactive)
REMARK    1  A    between atoms: O_1  and  C_19
REMARK    2  A    between atoms: O_1  and  C_28
REMARK    3  A    between atoms: O_2  and  C_23
REMARK    4  A    between atoms: O_2  and  C_31
REMARK    5  A    between atoms: O_3  and  C_27
REMARK    6  A    between atoms: O_3  and  C_32
REMARK    7  A    between atoms: O_4  and  C_30
REMARK    8  A    between atoms: O_4  and  C_33
REMARK    9  A    between atoms: N_5  and  C_12
REMARK   10  A    between atoms: N_5  and  C_18
REMARK   11  A    between atoms: N_5  and  C_20
REMARK   12  A    between atoms: C_7  and  C_8
REMARK   13  A    between atoms: C_7  and  C_9
REMARK   14  A    between atoms: C_7  and  C_11
REMARK   15  A    between atoms: C_7  and  C_15
REMARK   16  A    between atoms: C_8  and  C_13
REMARK   17  A    between atoms: C_8  and  C_14
REMARK   18  A    between atoms: C_9  and  C_10
REMARK   19  A    between atoms: C_10  and  C_12
REMARK   20  A    between atoms: C_18  and  C_22
REMARK   21  A    between atoms: C_22  and  C_24
REMARK                            x       y       z     vdW  Elec       q    Type
REMARK                         _______ _______ _______ _____ _____    ______ ____
ROOT
ATOM      1  C   UNL A   1      -8.670  -8.038  33.282  0.00  0.00    -0.038 C 
ATOM      2  H   UNL A   1      -8.396  -8.842  32.592  0.00  0.00    +0.028 HD
ATOM      3  H   UNL A   1      -9.520  -7.505  32.849  0.00  0.00    +0.028 HD
ENDROOT
BRANCH   1   4
ATOM      4  C   UNL A   1      -7.475  -7.052  33.355  0.00  0.00    -0.001 C 
ATOM      5  H   UNL A   1      -7.738  -6.091  32.892  0.00  0.00    +0.043 HD
ATOM      6  H   UNL A   1      -7.302  -6.845  34.419  0.00  0.00    +0.043 HD
BRANCH   4   7
ATOM      7  N   UNL A   1      -6.221  -7.597  32.753  0.00  0.00    -0.305 NA
BRANCH   7   8
ATOM      8  C   UNL A   1      -5.536  -8.462  33.719  0.00  0.00    -0.013 C 
ATOM      9  H   UNL A   1      -4.668  -7.975  34.179  0.00  0.00    +0.039 HD
ATOM     10  H   UNL A   1      -6.219  -8.772  34.519  0.00  0.00    +0.039 HD
ATOM     11  H   UNL A   1      -5.208  -9.395  33.249  0.00  0.00    +0.039 HD
ENDBRANCH   7   8
BRANCH   7  12
ATOM     12  C   UNL A   1      -5.333  -6.515  32.237  0.00  0.00    +0.003 C 
ATOM     13  H   UNL A   1      -5.833  -5.563  32.441  0.00  0.00    +0.043 HD
ATOM     14  H   UNL A   1      -4.393  -6.524  32.803  0.00  0.00    +0.043 HD
BRANCH  12  15
ATOM     15  C   UNL A   1      -4.973  -6.530  30.719  0.00  0.00    -0.015 C 
ATOM     16  H   UNL A   1      -5.577  -7.309  30.234  0.00  0.00    +0.033 HD
ATOM     17  H   UNL A   1      -5.249  -5.570  30.266  0.00  0.00    +0.033 HD
BRANCH  15  18
ATOM     18  C   UNL A   1      -3.530  -6.852  30.333  0.00  0.00    -0.043 A 
ATOM     19  C   UNL A   1      -3.037  -8.157  30.166  0.00  0.00    -0.013 A 
ATOM     20  C   UNL A   1      -2.654  -5.790  30.069  0.00  0.00    -0.055 A 
ATOM     21  C   UNL A   1      -1.748  -8.412  29.639  0.00  0.00    +0.162 A 
ATOM     22  C   UNL A   1      -1.363  -6.031  29.587  0.00  0.00    -0.016 A 
ATOM     23  C   UNL A   1      -0.906  -7.332  29.339  0.00  0.00    +0.162 A 
ATOM     24  H   UNL A   1      -3.673  -8.987  30.449  0.00  0.00    +0.066 HD
ATOM     25  H   UNL A   1      -2.971  -4.760  30.219  0.00  0.00    +0.062 HD
ATOM     26  H   UNL A   1      -0.706  -5.187  29.381  0.00  0.00    +0.066 HD
BRANCH  23  27
ATOM     27  O   UNL A   1       0.364  -7.354  28.819  0.00  0.00    -0.491 OA
BRANCH  27  28
ATOM     28  C   UNL A   1       0.530  -7.324  27.406  0.00  0.00    +0.079 C 
ATOM     29  H   UNL A   1       1.079  -6.433  27.091  0.00  0.00    +0.066 HD
ATOM     30  H   UNL A   1       0.986  -8.247  27.032  0.00  0.00    +0.066 HD
ATOM     31  H   UNL A   1      -0.466  -7.252  26.957  0.00  0.00    +0.066 HD
ENDBRANCH  27  28
ENDBRANCH  23  27
BRANCH  21  32
ATOM     32  O   UNL A   1      -1.276  -9.673  29.400  0.00  0.00    -0.491 OA
BRANCH  32  33
ATOM     33  C   UNL A   1      -0.874 -10.490  30.489  0.00  0.00    +0.079 C 
ATOM     34  H   UNL A   1       0.148 -10.239  30.790  0.00  0.00    +0.066 HD
ATOM     35  H   UNL A   1      -1.564 -10.439  31.338  0.00  0.00    +0.066 HD
ATOM     36  H   UNL A   1      -0.881 -11.526  30.141  0.00  0.00    +0.066 HD
ENDBRANCH  32  33
ENDBRANCH  21  32
ENDBRANCH  15  18
ENDBRANCH  12  15
ENDBRANCH   7  12
ENDBRANCH   4   7
ENDBRANCH   1   4
BRANCH   1  37
ATOM     37  C   UNL A   1      -9.091  -8.658  34.657  0.00  0.00    -0.029 C 
ATOM     38  H   UNL A   1      -9.550  -7.858  35.256  0.00  0.00    +0.028 HD
ATOM     39  H   UNL A   1      -8.189  -8.930  35.218  0.00  0.00    +0.028 HD
BRANCH  37  40
ATOM     40  C   UNL A   1     -10.095  -9.930  34.593  0.00  0.00    +0.085 C 
BRANCH  40  41
ATOM     41  C   UNL A   1      -9.159 -11.112  34.208  0.00  0.00    -0.024 A 
ATOM     42  C   UNL A   1      -9.636 -12.111  33.332  0.00  0.00    -0.012 A 
ATOM     43  C   UNL A   1      -7.798 -11.173  34.545  0.00  0.00    -0.053 A 
ATOM     44  C   UNL A   1      -8.803 -13.087  32.760  0.00  0.00    +0.162 A 
ATOM     45  C   UNL A   1      -6.975 -12.189  34.048  0.00  0.00    -0.016 A 
ATOM     46  C   UNL A   1      -7.465 -13.153  33.162  0.00  0.00    +0.162 A 
ATOM     47  H   UNL A   1     -10.688 -12.103  33.052  0.00  0.00    +0.066 HD
ATOM     48  H   UNL A   1      -7.323 -10.422  35.169  0.00  0.00    +0.062 HD
ATOM     49  H   UNL A   1      -5.925 -12.212  34.333  0.00  0.00    +0.066 HD
BRANCH  44  50
ATOM     50  O   UNL A   1      -9.261 -13.955  31.804  0.00  0.00    -0.491 OA
BRANCH  50  51
ATOM     51  C   UNL A   1      -9.751 -15.197  32.304  0.00  0.00    +0.079 C 
ATOM     52  H   UNL A   1      -9.547 -15.235  33.377  0.00  0.00    +0.066 HD
ATOM     53  H   UNL A   1     -10.836 -15.270  32.172  0.00  0.00    +0.066 HD
ATOM     54  H   UNL A   1      -9.245 -16.053  31.839  0.00  0.00    +0.066 HD
ENDBRANCH  50  51
ENDBRANCH  44  50
BRANCH  46  55
ATOM     55  O   UNL A   1      -6.503 -14.018  32.710  0.00  0.00    -0.491 OA
BRANCH  55  56
ATOM     56  C   UNL A   1      -6.190 -15.116  33.558  0.00  0.00    +0.079 C 
ATOM     57  H   UNL A   1      -6.359 -16.080  33.067  0.00  0.00    +0.066 HD
ATOM     58  H   UNL A   1      -5.169 -15.031  33.940  0.00  0.00    +0.066 HD
ATOM     59  H   UNL A   1      -6.861 -15.063  34.422  0.00  0.00    +0.066 HD
ENDBRANCH  55  56
ENDBRANCH  46  55
ENDBRANCH  40  41
BRANCH  40  60
ATOM     60  C   UNL A   1     -10.821 -10.086  35.988  0.00  0.00    -0.024 C 
ATOM     61  H   UNL A   1     -11.545  -9.267  36.085  0.00  0.00    +0.031 HD
BRANCH  60  62
ATOM     62  C   UNL A   1      -9.907  -9.990  37.218  0.00  0.00    -0.061 C 
ATOM     63  H   UNL A   1     -10.253  -9.246  37.945  0.00  0.00    +0.023 HD
ATOM     64  H   UNL A   1      -9.893 -10.949  37.748  0.00  0.00    +0.023 HD
ATOM     65  H   UNL A   1      -8.879  -9.741  36.946  0.00  0.00    +0.023 HD
ENDBRANCH  60  62
BRANCH  60  66
ATOM     66  C   UNL A   1     -11.651 -11.375  36.125  0.00  0.00    -0.061 C 
ATOM     67  H   UNL A   1     -11.018 -12.241  36.340  0.00  0.00    +0.023 HD
ATOM     68  H   UNL A   1     -12.374 -11.277  36.944  0.00  0.00    +0.023 HD
ATOM     69  H   UNL A   1     -12.237 -11.585  35.226  0.00  0.00    +0.023 HD
ENDBRANCH  60  66
ENDBRANCH  40  60
BRANCH  40  71
ATOM     70  N   UNL A   1     -11.906  -9.495  32.527  0.00  0.00    -0.196 NA
ATOM     71  C   UNL A   1     -11.085  -9.692  33.464  0.00  0.00    +0.074 C 
ENDBRANCH  40  71
ENDBRANCH  37  40
ENDBRANCH   1  37
TORSDOF 21
ENDMDL
MODEL 8
REMARK VINA RESULT:    -4.676      4.032      6.402
REMARK INTER + INTRA:         -12.114
REMARK INTER:                  -9.459
REMARK INTRA:                  -2.654
REMARK UNBOUND:                -2.654
REMARK  Name = 2520
REMARK  21 active torsions:
REMARK  status: ('A' for Active; 'I' for Inactive)
REMARK    1  A    between atoms: O_1  and  C_19
REMARK    2  A    between atoms: O_1  and  C_28
REMARK    3  A    between atoms: O_2  and  C_23
REMARK    4  A    between atoms: O_2  and  C_31
REMARK    5  A    between atoms: O_3  and  C_27
REMARK    6  A    between atoms: O_3  and  C_32
REMARK    7  A    between atoms: O_4  and  C_30
REMARK    8  A    between atoms: O_4  and  C_33
REMARK    9  A    between atoms: N_5  and  C_12
REMARK   10  A    between atoms: N_5  and  C_18
REMARK   11  A    between atoms: N_5  and  C_20
REMARK   12  A    between atoms: C_7  and  C_8
REMARK   13  A    between atoms: C_7  and  C_9
REMARK   14  A    between atoms: C_7  and  C_11
REMARK   15  A    between atoms: C_7  and  C_15
REMARK   16  A    between atoms: C_8  and  C_13
REMARK   17  A    between atoms: C_8  and  C_14
REMARK   18  A    between atoms: C_9  and  C_10
REMARK   19  A    between atoms: C_10  and  C_12
REMARK   20  A    between atoms: C_18  and  C_22
REMARK   21  A    between atoms: C_22  and  C_24
REMARK                            x       y       z     vdW  Elec       q    Type
REMARK                         _______ _______ _______ _____ _____    ______ ____
ROOT
ATOM      1  C   UNL A   1     -23.971  -6.353   8.406  0.00  0.00    -0.038 C 
ATOM      2  H   UNL A   1     -24.200  -5.629   7.617  0.00  0.00    +0.028 HD
ATOM      3  H   UNL A   1     -24.455  -6.008   9.323  0.00  0.00    +0.028 HD
ENDROOT
BRANCH   1   4
ATOM      4  C   UNL A   1     -22.438  -6.328   8.638  0.00  0.00    -0.001 C 
ATOM      5  H   UNL A   1     -21.916  -6.857   7.829  0.00  0.00    +0.043 HD
ATOM      6  H   UNL A   1     -22.126  -5.278   8.572  0.00  0.00    +0.043 HD
BRANCH   4   7
ATOM      7  N   UNL A   1     -22.032  -6.875   9.967  0.00  0.00    -0.305 NA
BRANCH   7   8
ATOM      8  C   UNL A   1     -20.985  -6.034  10.556  0.00  0.00    -0.013 C 
ATOM      9  H   UNL A   1     -19.976  -6.363  10.281  0.00  0.00    +0.039 HD
ATOM     10  H   UNL A   1     -21.101  -4.989  10.246  0.00  0.00    +0.039 HD
ATOM     11  H   UNL A   1     -21.063  -6.016  11.649  0.00  0.00    +0.039 HD
ENDBRANCH   7   8
BRANCH   7  12
ATOM     12  C   UNL A   1     -21.623  -8.307   9.882  0.00  0.00    +0.003 C 
ATOM     13  H   UNL A   1     -21.644  -8.586   8.823  0.00  0.00    +0.043 HD
ATOM     14  H   UNL A   1     -20.587  -8.404  10.229  0.00  0.00    +0.043 HD
BRANCH  12  15
ATOM     15  C   UNL A   1     -22.482  -9.358  10.652  0.00  0.00    -0.015 C 
ATOM     16  H   UNL A   1     -21.970  -9.588  11.596  0.00  0.00    +0.033 HD
ATOM     17  H   UNL A   1     -23.456  -8.921  10.905  0.00  0.00    +0.033 HD
BRANCH  15  18
ATOM     18  C   UNL A   1     -22.714 -10.713   9.986  0.00  0.00    -0.043 A 
ATOM     19  C   UNL A   1     -22.341 -11.010   8.665  0.00  0.00    -0.013 A 
ATOM     20  C   UNL A   1     -23.277 -11.746  10.748  0.00  0.00    -0.055 A 
ATOM     21  C   UNL A   1     -22.411 -12.323   8.141  0.00  0.00    +0.162 A 
ATOM     22  C   UNL A   1     -23.390 -13.039  10.227  0.00  0.00    -0.016 A 
ATOM     23  C   UNL A   1     -22.936 -13.350   8.939  0.00  0.00    +0.162 A 
ATOM     24  H   UNL A   1     -21.986 -10.202   8.037  0.00  0.00    +0.066 HD
ATOM     25  H   UNL A   1     -23.619 -11.562  11.765  0.00  0.00    +0.062 HD
ATOM     26  H   UNL A   1     -23.823 -13.826  10.844  0.00  0.00    +0.066 HD
BRANCH  23  27
ATOM     27  O   UNL A   1     -23.086 -14.680   8.634  0.00  0.00    -0.491 OA
BRANCH  27  28
ATOM     28  C   UNL A   1     -24.135 -15.414   9.254  0.00  0.00    +0.079 C 
ATOM     29  H   UNL A   1     -24.964 -14.759   9.535  0.00  0.00    +0.066 HD
ATOM     30  H   UNL A   1     -24.462 -16.257   8.635  0.00  0.00    +0.066 HD
ATOM     31  H   UNL A   1     -23.740 -15.835  10.185  0.00  0.00    +0.066 HD
ENDBRANCH  27  28
ENDBRANCH  23  27
BRANCH  21  32
ATOM     32  O   UNL A   1     -21.986 -12.647   6.883  0.00  0.00    -0.491 OA
BRANCH  32  33
ATOM     33  C   UNL A   1     -22.903 -12.616   5.801  0.00  0.00    +0.079 C 
ATOM     34  H   UNL A   1     -23.396 -11.640   5.754  0.00  0.00    +0.066 HD
ATOM     35  H   UNL A   1     -22.440 -12.876   4.842  0.00  0.00    +0.066 HD
ATOM     36  H   UNL A   1     -23.667 -13.373   5.996  0.00  0.00    +0.066 HD
ENDBRANCH  32  33
ENDBRANCH  21  32
ENDBRANCH  15  18
ENDBRANCH  12  15
ENDBRANCH   7  12
ENDBRANCH   4   7
ENDBRANCH   1   4
BRANCH   1  37
ATOM     37  C   UNL A   1     -24.550  -7.752   8.007  0.00  0.00    -0.029 C 
ATOM     38  H   UNL A   1     -24.100  -8.501   8.674  0.00  0.00    +0.028 HD
ATOM     39  H   UNL A   1     -24.178  -8.022   7.011  0.00  0.00    +0.028 HD
BRANCH  37  40
ATOM     40  C   UNL A   1     -26.165  -7.897   8.042  0.00  0.00    +0.085 C 
BRANCH  40  41
ATOM     41  C   UNL A   1     -26.517  -8.372   6.603  0.00  0.00    -0.024 A 
ATOM     42  C   UNL A   1     -25.475  -8.596   5.677  0.00  0.00    -0.012 A 
ATOM     43  C   UNL A   1     -27.805  -8.756   6.199  0.00  0.00    -0.053 A 
ATOM     44  C   UNL A   1     -25.676  -9.228   4.438  0.00  0.00    +0.162 A 
ATOM     45  C   UNL A   1     -28.032  -9.311   4.935  0.00  0.00    -0.016 A 
ATOM     46  C   UNL A   1     -26.980  -9.546   4.045  0.00  0.00    +0.162 A 
ATOM     47  H   UNL A   1     -24.461  -8.305   5.949  0.00  0.00    +0.066 HD
ATOM     48  H   UNL A   1     -28.665  -8.674   6.858  0.00  0.00    +0.062 HD
ATOM     49  H   UNL A   1     -29.044  -9.592   4.650  0.00  0.00    +0.066 HD
BRANCH  44  50
ATOM     50  O   UNL A   1     -24.627  -9.562   3.622  0.00  0.00    -0.491 OA
BRANCH  50  51
ATOM     51  C   UNL A   1     -24.449  -8.709   2.493  0.00  0.00    +0.079 C 
ATOM     52  H   UNL A   1     -25.030  -9.119   1.663  0.00  0.00    +0.066 HD
ATOM     53  H   UNL A   1     -24.832  -7.704   2.699  0.00  0.00    +0.066 HD
ATOM     54  H   UNL A   1     -23.398  -8.667   2.175  0.00  0.00    +0.066 HD
ENDBRANCH  50  51
ENDBRANCH  44  50
BRANCH  46  55
ATOM     55  O   UNL A   1     -27.371 -10.172   2.891  0.00  0.00    -0.491 OA
BRANCH  55  56
ATOM     56  C   UNL A   1     -27.433 -11.592   2.931  0.00  0.00    +0.079 C 
ATOM     57  H   UNL A   1     -26.596 -12.028   3.486  0.00  0.00    +0.066 HD
ATOM     58  H   UNL A   1     -28.396 -11.927   3.325  0.00  0.00    +0.066 HD
ATOM     59  H   UNL A   1     -27.367 -11.951   1.898  0.00  0.00    +0.066 HD
ENDBRANCH  55  56
ENDBRANCH  46  55
ENDBRANCH  40  41
BRANCH  40  60
ATOM     60  C   UNL A   1     -26.568  -8.903   9.191  0.00  0.00    -0.024 C 
ATOM     61  H   UNL A   1     -27.664  -8.919   9.257  0.00  0.00    +0.031 HD
BRANCH  60  62
ATOM     62  C   UNL A   1     -26.066  -8.535  10.594  0.00  0.00    -0.061 C 
ATOM     63  H   UNL A   1     -24.983  -8.365  10.625  0.00  0.00    +0.023 HD
ATOM     64  H   UNL A   1     -26.531  -7.599  10.923  0.00  0.00    +0.023 HD
ATOM     65  H   UNL A   1     -26.306  -9.306  11.330  0.00  0.00    +0.023 HD
ENDBRANCH  60  62
BRANCH  60  66
ATOM     66  C   UNL A   1     -26.161 -10.364   8.920  0.00  0.00    -0.061 C 
ATOM     67  H   UNL A   1     -26.870 -11.068   9.363  0.00  0.00    +0.023 HD
ATOM     68  H   UNL A   1     -26.130 -10.556   7.840  0.00  0.00    +0.023 HD
ATOM     69  H   UNL A   1     -25.161 -10.589   9.297  0.00  0.00    +0.023 HD
ENDBRANCH  60  66
ENDBRANCH  40  60
BRANCH  40  71
ATOM     70  N   UNL A   1     -27.248  -5.368   8.453  0.00  0.00    -0.196 NA
ATOM     71  C   UNL A   1     -26.757  -6.515   8.267  0.00  0.00    +0.074 C 
ENDBRANCH  40  71
ENDBRANCH  37  40
ENDBRANCH   1  37
TORSDOF 21
ENDMDL
MODEL 9
REMARK VINA RESULT:    -4.644     27.503     31.312
REMARK INTER + INTRA:         -12.049
REMARK INTER:                  -8.210
REMARK INTRA:                  -3.839
REMARK UNBOUND:                -2.654
REMARK  Name = 2520
REMARK  21 active torsions:
REMARK  status: ('A' for Active; 'I' for Inactive)
REMARK    1  A    between atoms: O_1  and  C_19
REMARK    2  A    between atoms: O_1  and  C_28
REMARK    3  A    between atoms: O_2  and  C_23
REMARK    4  A    between atoms: O_2  and  C_31
REMARK    5  A    between atoms: O_3  and  C_27
REMARK    6  A    between atoms: O_3  and  C_32
REMARK    7  A    between atoms: O_4  and  C_30
REMARK    8  A    between atoms: O_4  and  C_33
REMARK    9  A    between atoms: N_5  and  C_12
REMARK   10  A    between atoms: N_5  and  C_18
REMARK   11  A    between atoms: N_5  and  C_20
REMARK   12  A    between atoms: C_7  and  C_8
REMARK   13  A    between atoms: C_7  and  C_9
REMARK   14  A    between atoms: C_7  and  C_11
REMARK   15  A    between atoms: C_7  and  C_15
REMARK   16  A    between atoms: C_8  and  C_13
REMARK   17  A    between atoms: C_8  and  C_14
REMARK   18  A    between atoms: C_9  and  C_10
REMARK   19  A    between atoms: C_10  and  C_12
REMARK   20  A    between atoms: C_18  and  C_22
REMARK   21  A    between atoms: C_22  and  C_24
REMARK                            x       y       z     vdW  Elec       q    Type
REMARK                         _______ _______ _______ _____ _____    ______ ____
ROOT
ATOM      1  C   UNL A   1     -18.299   9.648 -10.160  0.00  0.00    -0.038 C 
ATOM      2  H   UNL A   1     -17.767  10.198  -9.379  0.00  0.00    +0.028 HD
ATOM      3  H   UNL A   1     -18.181   8.581  -9.953  0.00  0.00    +0.028 HD
ENDROOT
BRANCH   1   4
ATOM      4  C   UNL A   1     -17.602   9.951 -11.511  0.00  0.00    -0.001 C 
ATOM      5  H   UNL A   1     -16.538   9.682 -11.467  0.00  0.00    +0.043 HD
ATOM      6  H   UNL A   1     -18.057   9.286 -12.257  0.00  0.00    +0.043 HD
BRANCH   4   7
ATOM      7  N   UNL A   1     -17.765  11.367 -11.956  0.00  0.00    -0.305 NA
BRANCH   7   8
ATOM      8  C   UNL A   1     -17.161  11.549 -13.281  0.00  0.00    -0.013 C 
ATOM      9  H   UNL A   1     -17.872  11.373 -14.096  0.00  0.00    +0.039 HD
ATOM     10  H   UNL A   1     -16.757  12.563 -13.390  0.00  0.00    +0.039 HD
ATOM     11  H   UNL A   1     -16.300  10.886 -13.415  0.00  0.00    +0.039 HD
ENDBRANCH   7   8
BRANCH   7  12
ATOM     12  C   UNL A   1     -17.228  12.334 -10.955  0.00  0.00    +0.003 C 
ATOM     13  H   UNL A   1     -17.317  11.862  -9.971  0.00  0.00    +0.043 HD
ATOM     14  H   UNL A   1     -16.161  12.495 -11.151  0.00  0.00    +0.043 HD
BRANCH  12  15
ATOM     15  C   UNL A   1     -17.909  13.735 -10.857  0.00  0.00    -0.015 C 
ATOM     16  H   UNL A   1     -17.118  14.492 -10.772  0.00  0.00    +0.033 HD
ATOM     17  H   UNL A   1     -18.463  13.939 -11.781  0.00  0.00    +0.033 HD
BRANCH  15  18
ATOM     18  C   UNL A   1     -18.834  13.994  -9.668  0.00  0.00    -0.043 A 
ATOM     19  C   UNL A   1     -19.954  14.841  -9.718  0.00  0.00    -0.013 A 
ATOM     20  C   UNL A   1     -18.596  13.305  -8.471  0.00  0.00    -0.055 A 
ATOM     21  C   UNL A   1     -20.884  14.921  -8.654  0.00  0.00    +0.162 A 
ATOM     22  C   UNL A   1     -19.487  13.407  -7.397  0.00  0.00    -0.016 A 
ATOM     23  C   UNL A   1     -20.648  14.185  -7.484  0.00  0.00    +0.162 A 
ATOM     24  H   UNL A   1     -20.102  15.446 -10.604  0.00  0.00    +0.066 HD
ATOM     25  H   UNL A   1     -17.722  12.665  -8.365  0.00  0.00    +0.062 HD
ATOM     26  H   UNL A   1     -19.282  12.854  -6.482  0.00  0.00    +0.066 HD
BRANCH  23  27
ATOM     27  O   UNL A   1     -21.417  14.112  -6.348  0.00  0.00    -0.491 OA
BRANCH  27  28
ATOM     28  C   UNL A   1     -21.296  15.137  -5.369  0.00  0.00    +0.079 C 
ATOM     29  H   UNL A   1     -20.284  15.549  -5.350  0.00  0.00    +0.066 HD
ATOM     30  H   UNL A   1     -22.059  15.913  -5.497  0.00  0.00    +0.066 HD
ATOM     31  H   UNL A   1     -21.465  14.680  -4.388  0.00  0.00    +0.066 HD
ENDBRANCH  27  28
ENDBRANCH  23  27
BRANCH  21  32
ATOM     32  O   UNL A   1     -22.017  15.682  -8.711  0.00  0.00    -0.491 OA
BRANCH  32  33
ATOM     33  C   UNL A   1     -22.444  16.217  -9.955  0.00  0.00    +0.079 C 
ATOM     34  H   UNL A   1     -23.140  15.527 -10.442  0.00  0.00    +0.066 HD
ATOM     35  H   UNL A   1     -22.874  17.220  -9.862  0.00  0.00    +0.066 HD
ATOM     36  H   UNL A   1     -21.559  16.312 -10.591  0.00  0.00    +0.066 HD
ENDBRANCH  32  33
ENDBRANCH  21  32
ENDBRANCH  15  18
ENDBRANCH  12  15
ENDBRANCH   7  12
ENDBRANCH   4   7
ENDBRANCH   1   4
BRANCH   1  37
ATOM     37  C   UNL A   1     -19.819  10.021 -10.110  0.00  0.00    -0.029 C 
ATOM     38  H   UNL A   1     -20.305   9.557 -10.981  0.00  0.00    +0.028 HD
ATOM     39  H   UNL A   1     -19.929  11.098 -10.283  0.00  0.00    +0.028 HD
BRANCH  37  40
ATOM     40  C   UNL A   1     -20.616   9.603  -8.761  0.00  0.00    +0.085 C 
BRANCH  40  41
ATOM     41  C   UNL A   1     -21.716  10.698  -8.636  0.00  0.00    -0.024 A 
ATOM     42  C   UNL A   1     -22.037  11.483  -9.766  0.00  0.00    -0.012 A 
ATOM     43  C   UNL A   1     -22.537  10.858  -7.510  0.00  0.00    -0.053 A 
ATOM     44  C   UNL A   1     -23.153  12.335  -9.811  0.00  0.00    +0.162 A 
ATOM     45  C   UNL A   1     -23.601  11.765  -7.514  0.00  0.00    -0.016 A 
ATOM     46  C   UNL A   1     -23.916  12.512  -8.652  0.00  0.00    +0.162 A 
ATOM     47  H   UNL A   1     -21.419  11.394 -10.658  0.00  0.00    +0.066 HD
ATOM     48  H   UNL A   1     -22.404  10.264  -6.610  0.00  0.00    +0.062 HD
ATOM     49  H   UNL A   1     -24.216  11.869  -6.621  0.00  0.00    +0.066 HD
BRANCH  44  50
ATOM     50  O   UNL A   1     -23.524  12.974 -10.965  0.00  0.00    -0.491 OA
BRANCH  50  51
ATOM     51  C   UNL A   1     -22.508  13.055 -11.962  0.00  0.00    +0.079 C 
ATOM     52  H   UNL A   1     -22.492  14.077 -12.348  0.00  0.00    +0.066 HD
ATOM     53  H   UNL A   1     -21.522  12.850 -11.531  0.00  0.00    +0.066 HD
ATOM     54  H   UNL A   1     -22.709  12.382 -12.807  0.00  0.00    +0.066 HD
ENDBRANCH  50  51
ENDBRANCH  44  50
BRANCH  46  55
ATOM     55  O   UNL A   1     -25.039  13.284  -8.506  0.00  0.00    -0.491 OA
BRANCH  55  56
ATOM     56  C   UNL A   1     -24.924  14.412  -7.649  0.00  0.00    +0.079 C 
ATOM     57  H   UNL A   1     -24.058  14.340  -6.982  0.00  0.00    +0.066 HD
ATOM     58  H   UNL A   1     -24.910  15.339  -8.228  0.00  0.00    +0.066 HD
ATOM     59  H   UNL A   1     -25.821  14.439  -7.023  0.00  0.00    +0.066 HD
ENDBRANCH  55  56
ENDBRANCH  46  55
ENDBRANCH  40  41
BRANCH  40  60
ATOM     60  C   UNL A   1     -21.163   8.130  -8.918  0.00  0.00    -0.024 C 
ATOM     61  H   UNL A   1     -22.168   8.094  -8.479  0.00  0.00    +0.031 HD
BRANCH  60  62
ATOM     62  C   UNL A   1     -20.348   7.046  -8.198  0.00  0.00    -0.061 C 
ATOM     63  H   UNL A   1     -20.961   6.428  -7.532  0.00  0.00    +0.023 HD
ATOM     64  H   UNL A   1     -19.910   6.359  -8.932  0.00  0.00    +0.023 HD
ATOM     65  H   UNL A   1     -19.534   7.471  -7.608  0.00  0.00    +0.023 HD
ENDBRANCH  60  62
BRANCH  60  66
ATOM     66  C   UNL A   1     -21.347   7.679 -10.380  0.00  0.00    -0.061 C 
ATOM     67  H   UNL A   1     -22.346   7.921 -10.753  0.00  0.00    +0.023 HD
ATOM     68  H   UNL A   1     -20.617   8.182 -11.027  0.00  0.00    +0.023 HD
ATOM     69  H   UNL A   1     -21.176   6.607 -10.504  0.00  0.00    +0.023 HD
ENDBRANCH  60  66
ENDBRANCH  40  60
BRANCH  40  71
ATOM     70  N   UNL A   1     -18.860   9.833  -6.616  0.00  0.00    -0.196 NA
ATOM     71  C   UNL A   1     -19.657   9.729  -7.589  0.00  0.00    +0.074 C 
ENDBRANCH  40  71
ENDBRANCH  37  40
ENDBRANCH   1  37
TORSDOF 21
ENDMDL
