@<TRIPOS>MOLECULE
2520
 71 72 0 0 0
SMALL
GASTEIGER

@<TRIPOS>ATOM
      1 O           1.0662    0.0151    0.0734 O.3     1  UNL11       0.0000
      2 O          -1.#IND   -1.#IND   -1.#IND O.3     1  UNL11       0.0000
      3 O          -1.#IND   -1.#IND   -1.#IND O.3     1  UNL11       0.0000
      4 O          -1.#IND   -1.#IND   -1.#IND O.3     1  UNL11       0.0000
      5 N          -1.#IND   -1.#IND   -1.#IND N.3     1  UNL11       0.0000
      6 N          -1.#IND   -1.#IND   -1.#IND N.1     1  UNL11       0.0000
      7 C          -1.#IND   -1.#IND   -1.#IND C.3     1  UNL11       0.0000
      8 C          -1.#IND   -1.#IND   -1.#IND C.3     1  UNL11       0.0000
      9 C          -1.#IND   -1.#IND   -1.#IND C.3     1  UNL11       0.0000
     10 C          -1.#IND   -1.#IND   -1.#IND C.3     1  UNL11       0.0000
     11 C          -1.#IND   -1.#IND   -1.#IND C.ar    1  UNL11       0.0000
     12 C          -1.#IND   -1.#IND   -1.#IND C.3     1  UNL11       0.0000
     13 C          -1.#IND   -1.#IND   -1.#IND C.3     1  UNL11       0.0000
     14 C          -1.#IND   -1.#IND   -1.#IND C.3     1  UNL11       0.0000
     15 C          -1.#IND   -1.#IND   -1.#IND C.1     1  UNL11       0.0000
     16 C          -1.#IND   -1.#IND   -1.#IND C.ar    1  UNL11       0.0000
     17 C          -1.#IND   -1.#IND   -1.#IND C.ar    1  UNL11       0.0000
     18 C          -1.#IND   -1.#IND   -1.#IND C.3     1  UNL11       0.0000
     19 C          -1.#IND   -1.#IND   -1.#IND C.ar    1  UNL11       0.0000
     20 C          -1.#IND   -1.#IND   -1.#IND C.3     1  UNL11       0.0000
     21 C          -1.#IND   -1.#IND   -1.#IND C.ar    1  UNL11       0.0000
     22 C          -1.#IND   -1.#IND   -1.#IND C.3     1  UNL11       0.0000
     23 C          -1.#IND   -1.#IND   -1.#IND C.ar    1  UNL11       0.0000
     24 C          -1.#IND   -1.#IND   -1.#IND C.ar    1  UNL11       0.0000
     25 C          -1.#IND   -1.#IND   -1.#IND C.ar    1  UNL11       0.0000
     26 C          -1.#IND   -1.#IND   -1.#IND C.ar    1  UNL11       0.0000
     27 C          -1.#IND   -1.#IND   -1.#IND C.ar    1  UNL11       0.0000
     28 C           2.0662    0.0151    0.0734 C.3     1  UNL11       0.0000
     29 C          -1.#IND   -1.#IND   -1.#IND C.ar    1  UNL11       0.0000
     30 C          -1.#IND   -1.#IND   -1.#IND C.ar    1  UNL11       0.0000
     31 C          -1.#IND   -1.#IND   -1.#IND C.3     1  UNL11       0.0000
     32 C          -1.#IND   -1.#IND   -1.#IND C.3     1  UNL11       0.0000
     33 C          -1.#IND   -1.#IND   -1.#IND C.3     1  UNL11       0.0000
     34 H          -1.#IND   -1.#IND   -1.#IND H       1  UNL11       0.0000
     35 H          -1.#IND   -1.#IND   -1.#IND H       1  UNL11       0.0000
     36 H          -1.#IND   -1.#IND   -1.#IND H       1  UNL11       0.0000
     37 H          -1.#IND   -1.#IND   -1.#IND H       1  UNL11       0.0000
     38 H          -1.#IND   -1.#IND   -1.#IND H       1  UNL11       0.0000
     39 H          -1.#IND   -1.#IND   -1.#IND H       1  UNL11       0.0000
     40 H          -1.#IND   -1.#IND   -1.#IND H       1  UNL11       0.0000
     41 H          -1.#IND   -1.#IND   -1.#IND H       1  UNL11       0.0000
     42 H          -1.#IND   -1.#IND   -1.#IND H       1  UNL11       0.0000
     43 H          -1.#IND   -1.#IND   -1.#IND H       1  UNL11       0.0000
     44 H          -1.#IND   -1.#IND   -1.#IND H       1  UNL11       0.0000
     45 H          -1.#IND   -1.#IND   -1.#IND H       1  UNL11       0.0000
     46 H          -1.#IND   -1.#IND   -1.#IND H       1  UNL11       0.0000
     47 H          -1.#IND   -1.#IND   -1.#IND H       1  UNL11       0.0000
     48 H          -1.#IND   -1.#IND   -1.#IND H       1  UNL11       0.0000
     49 H          -1.#IND   -1.#IND   -1.#IND H       1  UNL11       0.0000
     50 H          -1.#IND   -1.#IND   -1.#IND H       1  UNL11       0.0000
     51 H          -1.#IND   -1.#IND   -1.#IND H       1  UNL11       0.0000
     52 H          -1.#IND   -1.#IND   -1.#IND H       1  UNL11       0.0000
     53 H          -1.#IND   -1.#IND   -1.#IND H       1  UNL11       0.0000
     54 H          -1.#IND   -1.#IND   -1.#IND H       1  UNL11       0.0000
     55 H          -1.#IND   -1.#IND   -1.#IND H       1  UNL11       0.0000
     56 H          -1.#IND   -1.#IND   -1.#IND H       1  UNL11       0.0000
     57 H          -1.#IND   -1.#IND   -1.#IND H       1  UNL11       0.0000
     58 H          -1.#IND   -1.#IND   -1.#IND H       1  UNL11       0.0000
     59 H           2.3996   -0.8798   -0.2232 H       1  UNL11       0.0000
     60 H           2.3996    0.7195   -0.5534 H       1  UNL11       0.0000
     61 H           2.3996    0.2057    0.9967 H       1  UNL11       0.0000
     62 H          -1.#IND   -1.#IND   -1.#IND H       1  UNL11       0.0000
     63 H          -1.#IND   -1.#IND   -1.#IND H       1  UNL11       0.0000
     64 H          -1.#IND   -1.#IND   -1.#IND H       1  UNL11       0.0000
     65 H          -1.#IND   -1.#IND   -1.#IND H       1  UNL11       0.0000
     66 H          -1.#IND   -1.#IND   -1.#IND H       1  UNL11       0.0000
     67 H          -1.#IND   -1.#IND   -1.#IND H       1  UNL11       0.0000
     68 H          -1.#IND   -1.#IND   -1.#IND H       1  UNL11       0.0000
     69 H          -1.#IND   -1.#IND   -1.#IND H       1  UNL11       0.0000
     70 H          -1.#IND   -1.#IND   -1.#IND H       1  UNL11       0.0000
     71 H          -1.#IND   -1.#IND   -1.#IND H       1  UNL11       0.0000
@<TRIPOS>BOND
     1     1    19    1
     2     1    28    1
     3     2    23    1
     4     2    31    1
     5     3    27    1
     6     3    32    1
     7     4    30    1
     8     4    33    1
     9     5    12    1
    10     5    18    1
    11     5    20    1
    12     6    15    3
    13     7     8    1
    14     7     9    1
    15     7    11    1
    16     7    15    1
    17     8    13    1
    18     8    14    1
    19     8    34    1
    20     9    10    1
    21     9    35    1
    22     9    36    1
    23    10    12    1
    24    10    37    1
    25    10    38    1
    26    11    16    1
    27    11    17    1
    28    12    39    1
    29    12    40    1
    30    13    41    1
    31    13    42    1
    32    13    43    1
    33    14    44    1
    34    14    45    1
    35    14    46    1
    36    16    19    1
    37    16    47    1
    38    17    21    1
    39    17    48    1
    40    18    22    1
    41    18    49    1
    42    18    50    1
    43    19    23    1
    44    20    51    1
    45    20    52    1
    46    20    53    1
    47    21    23    1
    48    21    56    1
    49    22    24    1
    50    22    54    1
    51    22    55    1
    52    24    25    1
    53    24    26    1
    54    25    27    1
    55    25    57    1
    56    26    29    1
    57    26    58    1
    58    27    30    1
    59    28    59    1
    60    28    60    1
    61    28    61    1
    62    29    30    1
    63    29    62    1
    64    31    63    1
    65    31    64    1
    66    31    65    1
    67    32    66    1
    68    32    67    1
    69    32    68    1
    70    33    69    1
    71    33    70    1
    72    33    71    1
