@<TRIPOS>MOLECULE
autodock_runs/docked_ligand_101.pdbqt
 71 72 0 0 0
SMALL
GASTEIGER

@<TRIPOS>ATOM
      1  C        -19.8980    0.3370   59.6290 C.3     1  UNL1       -0.0380
      2  H        -20.6130   -0.4830   59.7470 H       1  UNL1        0.0280
      3  H        -18.9100   -0.1040   59.4740 H       1  UNL1        0.0280
      4  C        -19.8640    1.1300   60.9600 C.3     1  UNL1       -0.0010
      5  H        -20.1170    0.4770   61.8070 H       1  UNL1        0.0430
      6  H        -18.8230    1.4440   61.1140 H       1  UNL1        0.0430
      7  N        -20.7420    2.3380   60.9520 N.3     1  UNL1       -0.3050
      8  C        -19.9730    3.5190   61.3590 C.3     1  UNL1       -0.0130
      9  H        -20.5920    4.4220   61.4230 H       1  UNL1        0.0390
     10  H        -19.4960    3.3600   62.3330 H       1  UNL1        0.0390
     11  H        -19.1460    3.7080   60.6660 H       1  UNL1        0.0390
     12  C        -21.9640    2.1470   61.7870 C.3     1  UNL1        0.0030
     13  H        -22.3000    3.1420   62.0980 H       1  UNL1        0.0430
     14  H        -22.7550    1.7080   61.1680 H       1  UNL1        0.0430
     15  C        -21.8350    1.2810   63.0790 C.3     1  UNL1       -0.0150
     16  H        -20.8010    1.3610   63.4400 H       1  UNL1        0.0330
     17  H        -22.4880    1.6880   63.8610 H       1  UNL1        0.0330
     18  C        -22.0970   -0.2190   62.9580 C.ar    1  UNL1       -0.0430
     19  C        -21.0820   -1.1860   62.8580 C.ar    1  UNL1       -0.0130
     20  C        -23.4220   -0.6750   63.0090 C.ar    1  UNL1       -0.0550
     21  C        -21.3560   -2.5730   62.9250 C.ar    1  UNL1        0.1620
     22  C        -23.7080   -2.0440   63.0340 C.ar    1  UNL1       -0.0160
     23  C        -22.6870   -3.0030   63.0230 C.ar    1  UNL1        0.1620
     24  H        -20.0610   -0.8480   62.7300 H       1  UNL1        0.0660
     25  H        -24.2490    0.0320   63.0490 H       1  UNL1        0.0620
     26  H        -24.7460   -2.3700   63.0840 H       1  UNL1        0.0660
     27  O        -23.1690   -4.2860   63.1070 O.3     1  UNL1       -0.4910
     28  C        -23.0020   -5.0060   64.3230 C.3     1  UNL1        0.0790
     29  H        -23.3690   -4.4300   65.1760 H       1  UNL1        0.0660
     30  H        -23.4530   -6.0030   64.2690 H       1  UNL1        0.0660
     31  H        -21.9280   -5.1470   64.4790 H       1  UNL1        0.0660
     32  O        -20.3780   -3.5270   62.9030 O.3     1  UNL1       -0.4910
     33  C        -20.5300   -4.6700   62.0750 C.3     1  UNL1        0.0790
     34  H        -20.4290   -4.3890   61.0230 H       1  UNL1        0.0660
     35  H        -19.8420   -5.4810   62.3390 H       1  UNL1        0.0660
     36  H        -21.5420   -5.0550   62.2290 H       1  UNL1        0.0660
     37  C        -20.2900    1.1850   58.3720 C.3     1  UNL1       -0.0290
     38  H        -19.4080    1.2370   57.7170 H       1  UNL1        0.0280
     39  H        -20.4570    2.2250   58.6810 H       1  UNL1        0.0280
     40  C        -21.5670    0.6600   57.5210 C.3     1  UNL1        0.0850
     41  C        -21.9130   -0.7020   58.1910 C.ar    1  UNL1       -0.0240
     42  C        -21.1250   -1.8360   57.8940 C.ar    1  UNL1       -0.0120
     43  C        -22.8680   -0.8530   59.2080 C.ar    1  UNL1       -0.0530
     44  C        -21.2220   -3.0410   58.6080 C.ar    1  UNL1        0.1620
     45  C        -23.0320   -2.0740   59.8700 C.ar    1  UNL1       -0.0160
     46  C        -22.2220   -3.1750   59.5760 C.ar    1  UNL1        0.1620
     47  H        -20.3770   -1.7610   57.1060 H       1  UNL1        0.0660
     48  H        -23.4870   -0.0270   59.5450 H       1  UNL1        0.0620
     49  H        -23.7860   -2.1600   60.6510 H       1  UNL1        0.0660
     50  O        -20.3490   -4.0760   58.3960 O.3     1  UNL1       -0.4910
     51  C        -20.8560   -5.3680   58.7240 C.3     1  UNL1        0.0790
     52  H        -21.9260   -5.3780   58.5040 H       1  UNL1        0.0660
     53  H        -20.3850   -6.1400   58.1060 H       1  UNL1        0.0660
     54  H        -20.7330   -5.5970   59.7910 H       1  UNL1        0.0660
     55  O        -22.4640   -4.2590   60.3790 O.3     1  UNL1       -0.4910
     56  C        -23.7970   -4.7530   60.3900 C.3     1  UNL1        0.0790
     57  H        -24.3670   -4.4290   59.5130 H       1  UNL1        0.0660
     58  H        -23.8060   -5.8410   60.4970 H       1  UNL1        0.0660
     59  H        -24.2900   -4.3410   61.2770 H       1  UNL1        0.0660
     60  C        -22.7140    1.7430   57.5890 C.3     1  UNL1       -0.0240
     61  H        -23.6600    1.2220   57.7880 H       1  UNL1        0.0310
     62  C        -22.9380    2.5460   56.2990 C.3     1  UNL1       -0.0610
     63  H        -22.3520    2.1620   55.4550 H       1  UNL1        0.0230
     64  H        -23.9890    2.4780   55.9950 H       1  UNL1        0.0230
     65  H        -22.6920    3.6020   56.4270 H       1  UNL1        0.0230
     66  C        -22.5600    2.7510   58.7430 C.3     1  UNL1       -0.0610
     67  H        -23.3620    3.4950   58.7370 H       1  UNL1        0.0230
     68  H        -22.5930    2.2320   59.7080 H       1  UNL1        0.0230
     69  H        -21.6000    3.2720   58.7100 H       1  UNL1        0.0230
     70  N        -20.7300    0.2000   54.9080 N.3     1  UNL1       -0.1960
     71  C        -21.1090    0.4080   56.0930 C.3     1  UNL1        0.0740
@<TRIPOS>BOND
     1    70    71    1
     2    63    62    1
     3    64    62    1
     4    71    40    1
     5    62    65    1
     6    62    60    1
     7    47    42    1
     8    40    60    1
     9    40    41    1
    10    40    37    1
    11    60    61    1
    12    60    66    1
    13    38    37    1
    14    42    41   ar
    15    42    44   ar
    16    53    51    1
    17    41    43   ar
    18    37    39    1
    19    37     1    1
    20    50    44    1
    21    50    51    1
    22    52    51    1
    23    44    46   ar
    24    69    66    1
    25    51    54    1
    26    67    66    1
    27    66    68    1
    28    43    48    1
    29    43    45   ar
    30     3     1    1
    31    57    56    1
    32    46    45   ar
    33    46    55    1
    34     1     2    1
    35     1     4    1
    36    45    49    1
    37    55    56    1
    38    56    58    1
    39    56    59    1
    40    11     8    1
    41     7     4    1
    42     7     8    1
    43     7    12    1
    44     4     6    1
    45     4     5    1
    46    34    33    1
    47    14    12    1
    48     8     9    1
    49     8    10    1
    50    12    13    1
    51    12    15    1
    52    33    36    1
    53    33    35    1
    54    33    32    1
    55    24    19    1
    56    19    21   ar
    57    19    18   ar
    58    32    21    1
    59    21    23   ar
    60    18    20   ar
    61    18    15    1
    62    20    22   ar
    63    20    25    1
    64    23    22   ar
    65    23    27    1
    66    22    26    1
    67    15    16    1
    68    15    17    1
    69    27    28    1
    70    30    28    1
    71    28    31    1
    72    28    29    1
