@<TRIPOS>MOLECULE
2520
   71    72     1     0     0
SMALL
No Charge or Current Charge


@<TRIPOS>ATOM
      1 O            2.8660    -2.4820     0.0000 os         1 UNL      -0.491400
      2 O1           4.5980    -3.4820     0.0000 os         1 UNL      -0.491500
      3 O2          12.0980     1.3840     0.0000 os         1 UNL      -0.491400
      4 O3          13.0980     3.1160     0.0000 os         1 UNL      -0.491500
      5 N            7.5980     2.2500     0.0000 n3         1 UNL      -0.305000
      6 N1           2.5980     0.5180     0.0000 n1         1 UNL      -0.195600
      7 C            4.5980     0.5180     0.0000 c3         1 UNL       0.084600
      8 C1           4.5980     1.5180     0.0000 c3         1 UNL      -0.024200
      9 C2           5.5980     0.5180     0.0000 c3         1 UNL      -0.029000
     10 C3           6.0980     1.3840     0.0000 c3         1 UNL      -0.038500
     11 C4           4.5980    -0.4820     0.0000 ca         1 UNL      -0.023600
     12 C5           7.0980     1.3840     0.0000 c3         1 UNL      -0.001300
     13 C6           5.4640     2.0180     0.0000 c3         1 UNL      -0.060900
     14 C7           3.7320     2.0180     0.0000 c3         1 UNL      -0.060900
     15 C8           3.5980     0.5180     0.0000 c1         1 UNL       0.074200
     16 C9           3.7320    -0.9820     0.0000 ca         1 UNL      -0.011600
     17 C10          5.4640    -0.9820     0.0000 ca         1 UNL      -0.053400
     18 C11          8.5980     2.2500     0.0000 c3         1 UNL       0.002600
     19 C12          3.7320    -1.9820     0.0000 ca         1 UNL       0.161800
     20 C13          7.0980     3.1160     0.0000 c3         1 UNL      -0.012800
     21 C14          5.4640    -1.9820     0.0000 ca         1 UNL      -0.016000
     22 C15          9.0980     3.1160     0.0000 c3         1 UNL      -0.014800
     23 C16          4.5980    -2.4820     0.0000 ca         1 UNL       0.161500
     24 C17         10.0980     3.1160     0.0000 ca         1 UNL      -0.042500
     25 C18         10.5980     2.2500     0.0000 ca         1 UNL      -0.013100
     26 C19         10.5980     3.9820     0.0000 ca         1 UNL      -0.054800
     27 C20         11.5980     2.2500     0.0000 ca         1 UNL       0.161700
     28 C21          2.0000    -1.9820     0.0000 c3         1 UNL       0.079000
     29 C22         11.5980     3.9820     0.0000 ca         1 UNL      -0.016000
     30 C23         12.0980     3.1160     0.0000 ca         1 UNL       0.161500
     31 C24          5.4640    -3.9820     0.0000 c3         1 UNL       0.079000
     32 C25         13.0980     1.3840     0.0000 c3         1 UNL       0.079000
     33 C26         13.5980     3.9820     0.0000 c3         1 UNL       0.079000
     34 H            4.5980     2.1380     0.0000 hc         1 UNL       0.031400
     35 H1           5.4900    -0.0930     0.0000 hc         1 UNL       0.028400
     36 H2           6.1810     0.3060     0.0000 hc         1 UNL       0.028400
     37 H3           6.2060     1.9950     0.0000 hc         1 UNL       0.027800
     38 H4           5.5160     1.5960     0.0000 hc         1 UNL       0.027800
     39 H5           6.9900     0.7730     0.0000 h1         1 UNL       0.042600
     40 H6           7.6810     1.1720     0.0000 h1         1 UNL       0.042600
     41 H7           5.7740     1.4810     0.0000 hc         1 UNL       0.023300
     42 H8           6.0010     2.3280     0.0000 hc         1 UNL       0.023300
     43 H9           5.1540     2.5550     0.0000 hc         1 UNL       0.023300
     44 H10          4.0420     2.5550     0.0000 hc         1 UNL       0.023300
     45 H11          3.1950     2.3280     0.0000 hc         1 UNL       0.023300
     46 H12          3.4220     1.4810     0.0000 hc         1 UNL       0.023300
     47 H13          3.1950    -0.6720     0.0000 ha         1 UNL       0.065800
     48 H14          6.0010    -0.6720     0.0000 ha         1 UNL       0.062200
     49 H15          8.4900     1.6390     0.0000 h1         1 UNL       0.043000
     50 H16          9.1810     2.0380     0.0000 h1         1 UNL       0.043000
     51 H17          7.6350     3.4260     0.0000 h1         1 UNL       0.039100
     52 H18          6.7880     3.6530     0.0000 h1         1 UNL       0.039100
     53 H19          6.5610     2.8060     0.0000 h1         1 UNL       0.039100
     54 H20          9.2060     3.7270     0.0000 hc         1 UNL       0.032600
     55 H21          8.5150     3.3280     0.0000 hc         1 UNL       0.032600
     56 H22          6.0010    -2.2920     0.0000 ha         1 UNL       0.065500
     57 H23         10.2880     1.7130     0.0000 ha         1 UNL       0.065800
     58 H24         10.2880     4.5190     0.0000 ha         1 UNL       0.062100
     59 H25          2.3100    -1.4450     0.0000 h1         1 UNL       0.066000
     60 H26          1.4630    -1.6720     0.0000 h1         1 UNL       0.066000
     61 H27          1.6900    -2.5190     0.0000 h1         1 UNL       0.066000
     62 H28         11.9080     4.5190     0.0000 ha         1 UNL       0.065500
     63 H29          5.1540    -4.5190     0.0000 h1         1 UNL       0.066000
     64 H30          6.0010    -4.2920     0.0000 h1         1 UNL       0.066000
     65 H31          5.7740    -3.4450     0.0000 h1         1 UNL       0.066000
     66 H32         13.0980     0.7640     0.0000 h1         1 UNL       0.066000
     67 H33         13.7180     1.3840     0.0000 h1         1 UNL       0.066000
     68 H34         13.0980     2.0040     0.0000 h1         1 UNL       0.066000
     69 H35         14.1350     3.6720     0.0000 h1         1 UNL       0.066000
     70 H36         13.9080     4.5190     0.0000 h1         1 UNL       0.066000
     71 H37         13.0610     4.2920     0.0000 h1         1 UNL       0.066000
@<TRIPOS>BOND
     1     1    19 1   
     2     1    28 1   
     3     2    23 1   
     4     2    31 1   
     5     3    27 1   
     6     3    32 1   
     7     4    30 1   
     8     4    33 1   
     9     5    12 1   
    10     5    18 1   
    11     5    20 1   
    12     6    15 3   
    13     7     8 1   
    14     7     9 1   
    15     7    11 1   
    16     7    15 1   
    17     8    13 1   
    18     8    14 1   
    19     8    34 1   
    20     9    10 1   
    21     9    35 1   
    22     9    36 1   
    23    10    12 1   
    24    10    37 1   
    25    10    38 1   
    26    11    16 ar  
    27    11    17 ar  
    28    12    39 1   
    29    12    40 1   
    30    13    41 1   
    31    13    42 1   
    32    13    43 1   
    33    14    44 1   
    34    14    45 1   
    35    14    46 1   
    36    16    19 ar  
    37    16    47 1   
    38    17    21 ar  
    39    17    48 1   
    40    18    22 1   
    41    18    49 1   
    42    18    50 1   
    43    19    23 ar  
    44    20    51 1   
    45    20    52 1   
    46    20    53 1   
    47    21    23 ar  
    48    21    56 1   
    49    22    24 1   
    50    22    54 1   
    51    22    55 1   
    52    24    25 ar  
    53    24    26 ar  
    54    25    27 ar  
    55    25    57 1   
    56    26    29 ar  
    57    26    58 1   
    58    27    30 ar  
    59    28    59 1   
    60    28    60 1   
    61    28    61 1   
    62    29    30 ar  
    63    29    62 1   
    64    31    63 1   
    65    31    64 1   
    66    31    65 1   
    67    32    66 1   
    68    32    67 1   
    69    32    68 1   
    70    33    69 1   
    71    33    70 1   
    72    33    71 1   
@<TRIPOS>SUBSTRUCTURE
     1 UNL         1 TEMP              0 ****  ****    0 ROOT
