@<TRIPOS>MOLECULE
2520
 71 72 0 0 0
SMALL
GASTEIGER

@<TRIPOS>ATOM
      1  C         -6.0420   -2.1640    1.1200 C.3     1  UNL1       -0.0380
      2  H         -6.1700   -1.4550    0.2960 H       1  UNL1        0.0280
      3  H         -5.7430   -1.5940    2.0040 H       1  UNL1        0.0280
      4  C         -4.8750   -3.1140    0.7480 C.3     1  UNL1       -0.0010
      5  H         -4.3930   -3.5090    1.6530 H       1  UNL1        0.0430
      6  H         -5.3210   -3.9770    0.2360 H       1  UNL1        0.0430
      7  N         -3.8620   -2.4840   -0.1510 N.3     1  UNL1       -0.3050
      8  C         -3.1110   -3.5220   -0.8660 C.3     1  UNL1       -0.0130
      9  H         -3.2890   -3.5010   -1.9470 H       1  UNL1        0.0390
     10  H         -2.0340   -3.4150   -0.6930 H       1  UNL1        0.0390
     11  H         -3.3610   -4.5200   -0.4880 H       1  UNL1        0.0390
     12  C         -2.9640   -1.5480    0.5870 C.3     1  UNL1        0.0030
     13  H         -3.4380   -1.3410    1.5520 H       1  UNL1        0.0430
     14  H         -2.0110   -2.0510    0.7860 H       1  UNL1        0.0430
     15  C         -2.6460   -0.1710   -0.0760 C.3     1  UNL1       -0.0150
     16  H         -1.7170    0.2130    0.3690 H       1  UNL1        0.0330
     17  H         -2.4630   -0.3130   -1.1480 H       1  UNL1        0.0330
     18  C         -3.6640    0.9550    0.0990 C.ar    1  UNL1       -0.0430
     19  C         -4.5270    1.0650    1.2020 C.ar    1  UNL1       -0.0130
     20  C         -3.7060    1.9750   -0.8600 C.ar    1  UNL1       -0.0550
     21  C         -5.3300    2.2110    1.4170 C.ar    1  UNL1        0.1620
     22  C         -4.5260    3.0940   -0.6800 C.ar    1  UNL1       -0.0160
     23  C         -5.3200    3.2400    0.4650 C.ar    1  UNL1        0.1620
     24  H         -4.5690    0.2430    1.9070 H       1  UNL1        0.0660
     25  H         -3.0860    1.9210   -1.7540 H       1  UNL1        0.0620
     26  H         -4.5330    3.8770   -1.4370 H       1  UNL1        0.0660
     27  O         -6.0090    4.4280    0.4800 O.3     1  UNL1       -0.4910
     28  C         -5.4810    5.5210    1.2220 C.3     1  UNL1        0.0790
     29  H         -6.2710    6.0580    1.7510 H       1  UNL1        0.0660
     30  H         -4.6730    5.2040    1.8910 H       1  UNL1        0.0660
     31  H         -5.0460    6.2280    0.5070 H       1  UNL1        0.0660
     32  O         -6.1210    2.3700    2.5190 O.3     1  UNL1       -0.4910
     33  C         -7.1230    1.4070    2.8110 C.3     1  UNL1        0.0790
     34  H         -7.0830    1.1320    3.8690 H       1  UNL1        0.0660
     35  H         -8.1270    1.7360    2.5210 H       1  UNL1        0.0660
     36  H         -6.9010    0.5150    2.2200 H       1  UNL1        0.0660
     37  C         -7.4050   -2.8810    1.4020 C.3     1  UNL1       -0.0290
     38  H         -7.3400   -3.8960    0.9850 H       1  UNL1        0.0280
     39  H         -8.1920   -2.3970    0.8110 H       1  UNL1        0.0280
     40  C         -7.8650   -2.9630    2.9550 C.3     1  UNL1        0.0850
     41  C         -9.1510   -2.0880    2.9990 C.ar    1  UNL1       -0.0240
     42  C         -9.8370   -1.9320    4.2230 C.ar    1  UNL1       -0.0120
     43  C         -9.5970   -1.2990    1.9280 C.ar    1  UNL1       -0.0530
     44  C        -10.8690   -0.9970    4.4070 C.ar    1  UNL1        0.1620
     45  C        -10.6780   -0.4240    2.0750 C.ar    1  UNL1       -0.0160
     46  C        -11.3250   -0.2680    3.3040 C.ar    1  UNL1        0.1620
     47  H         -9.5260   -2.5330    5.0770 H       1  UNL1        0.0660
     48  H         -9.1030   -1.3070    0.9600 H       1  UNL1        0.0620
     49  H        -11.0030    0.1710    1.2220 H       1  UNL1        0.0660
     50  O        -11.4200   -0.7660    5.6410 O.3     1  UNL1       -0.4910
     51  C        -11.0160   -1.6770    6.6600 C.3     1  UNL1        0.0790
     52  H        -11.2890   -1.2470    7.6270 H       1  UNL1        0.0660
     53  H        -11.5460   -2.6310    6.5620 H       1  UNL1        0.0660
     54  H         -9.9290   -1.8350    6.6610 H       1  UNL1        0.0660
     55  O        -12.3040    0.6910    3.2880 O.3     1  UNL1       -0.4910
     56  C        -11.8650    2.0430    3.2460 C.3     1  UNL1        0.0790
     57  H        -11.6600    2.4440    4.2450 H       1  UNL1        0.0660
     58  H        -11.0010    2.1490    2.5840 H       1  UNL1        0.0660
     59  H        -12.6760    2.6360    2.8110 H       1  UNL1        0.0660
     60  C         -8.0790   -4.4770    3.3520 C.3     1  UNL1       -0.0240
     61  H         -8.3900   -4.5100    4.4040 H       1  UNL1        0.0310
     62  C         -6.8300   -5.3650    3.2530 C.3     1  UNL1       -0.0610
     63  H         -6.2030   -5.3140    4.1500 H       1  UNL1        0.0230
     64  H         -7.1260   -6.4150    3.1480 H       1  UNL1        0.0230
     65  H         -6.2090   -5.1030    2.3930 H       1  UNL1        0.0230
     66  C         -9.2090   -5.1770    2.5750 C.3     1  UNL1       -0.0610
     67  H         -8.9870   -5.2380    1.5060 H       1  UNL1        0.0230
     68  H         -9.3490   -6.2000    2.9460 H       1  UNL1        0.0230
     69  H        -10.1710   -4.6730    2.7040 H       1  UNL1        0.0230
     70  N         -5.8930   -1.7560    4.5030 N.3     1  UNL1       -0.1960
     71  C         -6.7880   -2.3030    3.8010 C.3     1  UNL1        0.0740
@<TRIPOS>BOND
     1     9     8    1
     2    25    20    1
     3    26    22    1
     4    17    15    1
     5     8    10    1
     6     8    11    1
     7     8     7    1
     8    20    22   ar
     9    20    18   ar
    10    22    23   ar
    11     7    12    1
    12     7     4    1
    13    15    18    1
    14    15    16    1
    15    15    12    1
    16    18    19   ar
    17     6     4    1
    18     2     1    1
    19    23    27    1
    20    23    21   ar
    21    27    28    1
    22    31    28    1
    23    12    14    1
    24    12    13    1
    25     4     1    1
    26     4     5    1
    27    39    37    1
    28    48    43    1
    29    38    37    1
    30     1    37    1
    31     1     3    1
    32    19    21   ar
    33    19    24    1
    34    28    29    1
    35    28    30    1
    36    49    45    1
    37    37    40    1
    38    21    32    1
    39    67    66    1
    40    43    45   ar
    41    43    41   ar
    42    45    46   ar
    43    36    33    1
    44    65    62    1
    45    32    33    1
    46    35    33    1
    47    66    69    1
    48    66    68    1
    49    66    60    1
    50    58    56    1
    51    33    34    1
    52    59    56    1
    53    40    41    1
    54    40    60    1
    55    40    71    1
    56    41    42   ar
    57    64    62    1
    58    56    55    1
    59    56    57    1
    60    62    60    1
    61    62    63    1
    62    55    46    1
    63    46    44   ar
    64    60    61    1
    65    71    70    1
    66    42    44   ar
    67    42    47    1
    68    44    50    1
    69    50    51    1
    70    53    51    1
    71    51    54    1
    72    51    52    1
